
*** ChampSim Multicore Out-of-Order Simulator ***

Warmup Instructions: 25000000
Simulation Instructions: 25000000
Number of CPUs: 1
Off-chip DRAM Size: 4 GiB Channels: 1 Width: 64-bit Data Rate: 3200 MT/s

VirtualMemory physical capacity: 8588881920 num_ppages: 2096895
VirtualMemory page size: 4096 log2_page_size: 12

CPU 0 runs traces/603.bwaves_s-1740B.champsimtrace.xz
CPU 0 Bimodal branch predictor
Basic BTB sets: 1024 ways: 8 indirect buffer size: 4096 RAS size: 64
cpu0_L1D Stream prefetcher
cpu0_L2C Stream prefetcher
WARNING: The extended signature CACHE::prefetch_line(ip, base_addr, pf_addr, fill_this_level, prefetch_metadata) is deprecated.
WARNING: Use CACHE::prefetch_line(pf_addr, fill_this_level, prefetch_metadata) instead.
Heartbeat CPU 0 instructions: 10000001 cycles: 3642288 heartbeat IPC: 2.74553 cumulative IPC: 2.74553 (Simulation time: 0 hr 0 min 35 sec) 
Heartbeat CPU 0 instructions: 20000001 cycles: 7284434 heartbeat IPC: 2.74563 cumulative IPC: 2.74558 (Simulation time: 0 hr 1 min 10 sec) 

Warmup complete CPU 0 instructions: 25000001 cycles: 9105488 (Simulation time: 0 hr 1 min 28 sec) 

Heartbeat CPU 0 instructions: 30000003 cycles: 23383859 heartbeat IPC: 0.62114 cumulative IPC: 0.35018 (Simulation time: 0 hr 2 min 30 sec) 
Heartbeat CPU 0 instructions: 40000001 cycles: 51935027 heartbeat IPC: 0.350248 cumulative IPC: 0.350226 (Simulation time: 0 hr 4 min 28 sec) 
Heartbeat CPU 0 instructions: 50000001 cycles: 80478141 heartbeat IPC: 0.350347 cumulative IPC: 0.341261 (Simulation time: 0 hr 6 min 31 sec) 
Finished CPU 0 instructions: 25000000 cycles: 71372653 cumulative IPC: 0.341261 (Simulation time: 0 hr 6 min 31 sec) 

ChampSim completed all CPUs

Region of Interest Statistics

CPU 0 cumulative IPC: 0.341261 instructions: 25000000 cycles: 71372653
cpu0_DTLB TOTAL     ACCESS:    7858524  HIT:    7829307  MISS:      29217
cpu0_DTLB LOAD      ACCESS:    7303022  HIT:    7278672  MISS:      24350
cpu0_DTLB RFO       ACCESS:     555502  HIT:     550635  MISS:       4867
cpu0_DTLB PREFETCH  ACCESS:          0  HIT:          0  MISS:          0
cpu0_DTLB WRITEBACK ACCESS:          0  HIT:          0  MISS:          0
cpu0_DTLB TRANSLATION ACCESS:          0  HIT:          0  MISS:          0
cpu0_DTLB PREFETCH  REQUESTED:          0  ISSUED:          0  USEFUL:          0  USELESS:          0
cpu0_DTLB AVERAGE MISS LATENCY: 74.0713 cycles
cpu0_ITLB TOTAL     ACCESS:    2203723  HIT:    2203723  MISS:          0
cpu0_ITLB LOAD      ACCESS:    2203723  HIT:    2203723  MISS:          0
cpu0_ITLB RFO       ACCESS:          0  HIT:          0  MISS:          0
cpu0_ITLB PREFETCH  ACCESS:          0  HIT:          0  MISS:          0
cpu0_ITLB WRITEBACK ACCESS:          0  HIT:          0  MISS:          0
cpu0_ITLB TRANSLATION ACCESS:          0  HIT:          0  MISS:          0
cpu0_ITLB PREFETCH  REQUESTED:          0  ISSUED:          0  USEFUL:          0  USELESS:          0
cpu0_ITLB AVERAGE MISS LATENCY: -nan cycles
cpu0_STLB TOTAL     ACCESS:      29217  HIT:      21793  MISS:       7424
cpu0_STLB LOAD      ACCESS:      24350  HIT:      17116  MISS:       7234
cpu0_STLB RFO       ACCESS:       4867  HIT:       4677  MISS:        190
cpu0_STLB PREFETCH  ACCESS:          0  HIT:          0  MISS:          0
cpu0_STLB WRITEBACK ACCESS:          0  HIT:          0  MISS:          0
cpu0_STLB TRANSLATION ACCESS:          0  HIT:          0  MISS:          0
cpu0_STLB PREFETCH  REQUESTED:          0  ISSUED:          0  USEFUL:          0  USELESS:          0
cpu0_STLB AVERAGE MISS LATENCY: 255.298 cycles
cpu0_L1D TOTAL     ACCESS:    8592820  HIT:    8076936  MISS:     515884
cpu0_L1D LOAD      ACCESS:    6505213  HIT:    6017586  MISS:     487627
cpu0_L1D RFO       ACCESS:    1389084  HIT:    1376903  MISS:      12181
cpu0_L1D PREFETCH  ACCESS:     691099  HIT:     675788  MISS:      15311
cpu0_L1D WRITEBACK ACCESS:          0  HIT:          0  MISS:          0
cpu0_L1D TRANSLATION ACCESS:       7424  HIT:       6659  MISS:        765
cpu0_L1D PREFETCH  REQUESTED:     852502  ISSUED:     704670  USEFUL:      15311  USELESS:          0
cpu0_L1D AVERAGE MISS LATENCY: 1129.11 cycles
cpu0_L2C TOTAL     ACCESS:    1201357  HIT:     709468  MISS:     491889
cpu0_L2C LOAD      ACCESS:     487627  HIT:      24524  MISS:     463103
cpu0_L2C RFO       ACCESS:      12181  HIT:          0  MISS:      12181
cpu0_L2C PREFETCH  ACCESS:     688412  HIT:     671968  MISS:      16444
cpu0_L2C WRITEBACK ACCESS:      12372  HIT:      12372  MISS:          0
cpu0_L2C TRANSLATION ACCESS:        765  HIT:        604  MISS:        161
cpu0_L2C PREFETCH  REQUESTED:     720175  ISSUED:     672917  USEFUL:       6703  USELESS:          2
cpu0_L2C AVERAGE MISS LATENCY: 1204.95 cycles
LLC TOTAL     ACCESS:     505286  HIT:      13741  MISS:     491545
LLC LOAD      ACCESS:     463103  HIT:        216  MISS:     462887
LLC RFO       ACCESS:      12181  HIT:          0  MISS:      12181
LLC PREFETCH  ACCESS:      17628  HIT:       1184  MISS:      16444
LLC WRITEBACK ACCESS:      12213  HIT:      12210  MISS:          3
LLC TRANSLATION ACCESS:        161  HIT:        131  MISS:         30
LLC PREFETCH  REQUESTED:          0  ISSUED:          0  USEFUL:          0  USELESS:          0
LLC AVERAGE MISS LATENCY: 1191.84 cycles

DRAM Statistics
 CHANNEL 0
 RQ ROW_BUFFER_HIT:         18  ROW_BUFFER_MISS:     491524
 DBUS AVG_CONGESTED_CYCLE:    3.99815
 WQ ROW_BUFFER_HIT:       2884  ROW_BUFFER_MISS:       9570  FULL:          0


CPU 0 Branch Prediction Accuracy: 62.4635% MPKI: 9.3696 Average ROB Occupancy at Mispredict: 291.139
Branch type MPKI
BRANCH_DIRECT_JUMP: 0
BRANCH_INDIRECT: 0
BRANCH_CONDITIONAL: 9.3696
BRANCH_DIRECT_CALL: 0
BRANCH_INDIRECT_CALL: 0
BRANCH_RETURN: 0

