
*** ChampSim Multicore Out-of-Order Simulator ***

Warmup Instructions: 25000000
Simulation Instructions: 25000000
Number of CPUs: 1
Off-chip DRAM Size: 4 GiB Channels: 1 Width: 64-bit Data Rate: 3200 MT/s

VirtualMemory physical capacity: 8588881920 num_ppages: 2096895
VirtualMemory page size: 4096 log2_page_size: 12

CPU 0 runs traces/sssp-3.trace.gz
CPU 0 Bimodal branch predictor
Basic BTB sets: 1024 ways: 8 indirect buffer size: 4096 RAS size: 64
cpu0_L1D Stream prefetcher
cpu0_L2C Stream prefetcher
WARNING: The extended signature CACHE::prefetch_line(ip, base_addr, pf_addr, fill_this_level, prefetch_metadata) is deprecated.
WARNING: Use CACHE::prefetch_line(pf_addr, fill_this_level, prefetch_metadata) instead.
Heartbeat CPU 0 instructions: 10000002 cycles: 2980427 heartbeat IPC: 3.35522 cumulative IPC: 3.35522 (Simulation time: 0 hr 0 min 29 sec) 
Heartbeat CPU 0 instructions: 20000001 cycles: 6362379 heartbeat IPC: 2.95687 cumulative IPC: 3.14348 (Simulation time: 0 hr 1 min 2 sec) 

Warmup complete CPU 0 instructions: 25000004 cycles: 8126958 (Simulation time: 0 hr 1 min 19 sec) 

Heartbeat CPU 0 instructions: 30000002 cycles: 25827455 heartbeat IPC: 0.513741 cumulative IPC: 0.282478 (Simulation time: 0 hr 1 min 46 sec) 
Heartbeat CPU 0 instructions: 40000001 cycles: 62812745 heartbeat IPC: 0.270378 cumulative IPC: 0.274294 (Simulation time: 0 hr 2 min 40 sec) 
Heartbeat CPU 0 instructions: 50000002 cycles: 99055702 heartbeat IPC: 0.275916 cumulative IPC: 0.283186 (Simulation time: 0 hr 3 min 35 sec) 
Finished CPU 0 instructions: 25000000 cycles: 90928762 cumulative IPC: 0.283186 (Simulation time: 0 hr 3 min 35 sec) 

ChampSim completed all CPUs

Region of Interest Statistics

CPU 0 cumulative IPC: 0.283186 instructions: 25000000 cycles: 90928762
cpu0_DTLB TOTAL     ACCESS:    6313719  HIT:    5876140  MISS:     437579
cpu0_DTLB LOAD      ACCESS:    5888900  HIT:    5608726  MISS:     280174
cpu0_DTLB RFO       ACCESS:     424819  HIT:     267414  MISS:     157405
cpu0_DTLB PREFETCH  ACCESS:          0  HIT:          0  MISS:          0
cpu0_DTLB WRITEBACK ACCESS:          0  HIT:          0  MISS:          0
cpu0_DTLB TRANSLATION ACCESS:          0  HIT:          0  MISS:          0
cpu0_DTLB PREFETCH  REQUESTED:          0  ISSUED:          0  USEFUL:          0  USELESS:          0
cpu0_DTLB AVERAGE MISS LATENCY: 11.3231 cycles
cpu0_ITLB TOTAL     ACCESS:    2383428  HIT:    2383428  MISS:          0
cpu0_ITLB LOAD      ACCESS:    2383428  HIT:    2383428  MISS:          0
cpu0_ITLB RFO       ACCESS:          0  HIT:          0  MISS:          0
cpu0_ITLB PREFETCH  ACCESS:          0  HIT:          0  MISS:          0
cpu0_ITLB WRITEBACK ACCESS:          0  HIT:          0  MISS:          0
cpu0_ITLB TRANSLATION ACCESS:          0  HIT:          0  MISS:          0
cpu0_ITLB PREFETCH  REQUESTED:          0  ISSUED:          0  USEFUL:          0  USELESS:          0
cpu0_ITLB AVERAGE MISS LATENCY: -nan cycles
cpu0_L1I TOTAL     ACCESS:      10708  HIT:      10708  MISS:          0
cpu0_L1I LOAD      ACCESS:      10708  HIT:      10708  MISS:          0
cpu0_L1I RFO       ACCESS:          0  HIT:          0  MISS:          0
cpu0_L1I PREFETCH  ACCESS:          0  HIT:          0  MISS:          0
cpu0_L1I WRITEBACK ACCESS:          0  HIT:          0  MISS:          0
cpu0_L1I TRANSLATION ACCESS:          0  HIT:          0  MISS:          0
cpu0_L1I PREFETCH  REQUESTED:          0  ISSUED:          0  USEFUL:          0  USELESS:          0
cpu0_L1I AVERAGE MISS LATENCY: -nan cycles
cpu0_STLB TOTAL     ACCESS:     437579  HIT:     432149  MISS:       5430
cpu0_STLB LOAD      ACCESS:     280174  HIT:     275487  MISS:       4687
cpu0_STLB RFO       ACCESS:     157405  HIT:     156662  MISS:        743
cpu0_STLB PREFETCH  ACCESS:          0  HIT:          0  MISS:          0
cpu0_STLB WRITEBACK ACCESS:          0  HIT:          0  MISS:          0
cpu0_STLB TRANSLATION ACCESS:          0  HIT:          0  MISS:          0
cpu0_STLB PREFETCH  REQUESTED:          0  ISSUED:          0  USEFUL:          0  USELESS:          0
cpu0_STLB AVERAGE MISS LATENCY: 180.059 cycles
cpu0_L1D TOTAL     ACCESS:    6292404  HIT:    4990810  MISS:    1301594
cpu0_L1D LOAD      ACCESS:    5558614  HIT:    4430910  MISS:    1127704
cpu0_L1D RFO       ACCESS:     630135  HIT:     513209  MISS:     116926
cpu0_L1D PREFETCH  ACCESS:      98252  HIT:      43354  MISS:      54898
cpu0_L1D WRITEBACK ACCESS:          0  HIT:          0  MISS:          0
cpu0_L1D TRANSLATION ACCESS:       5403  HIT:       3337  MISS:       2066
cpu0_L1D PREFETCH  REQUESTED:     149446  ISSUED:     114594  USEFUL:      13507  USELESS:      41365
cpu0_L1D AVERAGE MISS LATENCY: 130.055 cycles
cpu0_L2C TOTAL     ACCESS:    1963901  HIT:     923274  MISS:    1040627
cpu0_L2C LOAD      ACCESS:    1127699  HIT:     191997  MISS:     935702
cpu0_L2C RFO       ACCESS:     116917  HIT:      81279  MISS:      35638
cpu0_L2C PREFETCH  ACCESS:     364953  HIT:     297409  MISS:      67544
cpu0_L2C WRITEBACK ACCESS:     352266  HIT:     351008  MISS:       1258
cpu0_L2C TRANSLATION ACCESS:       2066  HIT:       1581  MISS:        485
cpu0_L2C PREFETCH  REQUESTED:     399563  ISSUED:     314162  USEFUL:       7072  USELESS:       4745
cpu0_L2C AVERAGE MISS LATENCY: 153.277 cycles
LLC TOTAL     ACCESS:    1274375  HIT:     628762  MISS:     645613
LLC LOAD      ACCESS:     935701  HIT:     373011  MISS:     562690
LLC RFO       ACCESS:      35638  HIT:       9954  MISS:      25684
LLC PREFETCH  ACCESS:      67588  HIT:      12317  MISS:      55271
LLC WRITEBACK ACCESS:     234963  HIT:     233224  MISS:       1739
LLC TRANSLATION ACCESS:        485  HIT:        256  MISS:        229
LLC PREFETCH  REQUESTED:          0  ISSUED:          0  USEFUL:          0  USELESS:          0
LLC AVERAGE MISS LATENCY: 213.308 cycles

DRAM Statistics
 CHANNEL 0
 RQ ROW_BUFFER_HIT:      46570  ROW_BUFFER_MISS:     596933
 DBUS AVG_CONGESTED_CYCLE:    3.94584
 WQ ROW_BUFFER_HIT:      36992  ROW_BUFFER_MISS:     168297  FULL:          0


CPU 0 Branch Prediction Accuracy: 91.1986% MPKI: 12.9566 Average ROB Occupancy at Mispredict: 52.2004
Branch type MPKI
BRANCH_DIRECT_JUMP: 0
BRANCH_INDIRECT: 0
BRANCH_CONDITIONAL: 12.9566
BRANCH_DIRECT_CALL: 0
BRANCH_INDIRECT_CALL: 0
BRANCH_RETURN: 0

