
*** ChampSim Multicore Out-of-Order Simulator ***

Warmup Instructions: 25000000
Simulation Instructions: 25000000
Number of CPUs: 1
Off-chip DRAM Size: 4 GiB Channels: 1 Width: 64-bit Data Rate: 3200 MT/s

VirtualMemory physical capacity: 8588881920 num_ppages: 2096895
VirtualMemory page size: 4096 log2_page_size: 12

CPU 0 runs traces/bc-0.trace.gz
CPU 0 Bimodal branch predictor
Basic BTB sets: 1024 ways: 8 indirect buffer size: 4096 RAS size: 64
Stream Prefetcher Initialized
cpu0_L2C IP-based stride prefetcher
WARNING: The extended signature CACHE::prefetch_line(ip, base_addr, pf_addr, fill_this_level, prefetch_metadata) is deprecated.
WARNING: Use CACHE::prefetch_line(pf_addr, fill_this_level, prefetch_metadata) instead.
Heartbeat CPU 0 instructions: 10000002 cycles: 3203425 heartbeat IPC: 3.12166 cumulative IPC: 3.12166 (Simulation time: 0 hr 0 min 44 sec) 
Heartbeat CPU 0 instructions: 20000000 cycles: 5712251 heartbeat IPC: 3.98593 cumulative IPC: 3.50125 (Simulation time: 0 hr 1 min 12 sec) 

Warmup complete CPU 0 instructions: 25000001 cycles: 6963681 (Simulation time: 0 hr 1 min 26 sec) 

Heartbeat CPU 0 instructions: 30000001 cycles: 40343275 heartbeat IPC: 0.288758 cumulative IPC: 0.149792 (Simulation time: 0 hr 2 min 7 sec) 
Heartbeat CPU 0 instructions: 40000002 cycles: 108686096 heartbeat IPC: 0.146321 cumulative IPC: 0.14746 (Simulation time: 0 hr 3 min 44 sec) 
Heartbeat CPU 0 instructions: 50000002 cycles: 176868842 heartbeat IPC: 0.146665 cumulative IPC: 0.147141 (Simulation time: 0 hr 5 min 16 sec) 
Finished CPU 0 instructions: 25000001 cycles: 169905161 cumulative IPC: 0.147141 (Simulation time: 0 hr 5 min 16 sec) 

ChampSim completed all CPUs

Region of Interest Statistics

CPU 0 cumulative IPC: 0.147141 instructions: 25000001 cycles: 169905161
cpu0_DTLB TOTAL     ACCESS:    5774784  HIT:    5041002  MISS:     733782
cpu0_DTLB LOAD      ACCESS:    4547394  HIT:    4070204  MISS:     477190
cpu0_DTLB RFO       ACCESS:    1227390  HIT:     970798  MISS:     256592
cpu0_DTLB PREFETCH  ACCESS:          0  HIT:          0  MISS:          0
cpu0_DTLB WRITEBACK ACCESS:          0  HIT:          0  MISS:          0
cpu0_DTLB TRANSLATION ACCESS:          0  HIT:          0  MISS:          0
cpu0_DTLB PREFETCH  REQUESTED:          0  ISSUED:          0  USEFUL:          0  USELESS:          0
cpu0_DTLB AVERAGE MISS LATENCY: 13.8795 cycles
cpu0_ITLB TOTAL     ACCESS:    3107161  HIT:    3107161  MISS:          0
cpu0_ITLB LOAD      ACCESS:    3107161  HIT:    3107161  MISS:          0
cpu0_ITLB RFO       ACCESS:          0  HIT:          0  MISS:          0
cpu0_ITLB PREFETCH  ACCESS:          0  HIT:          0  MISS:          0
cpu0_ITLB WRITEBACK ACCESS:          0  HIT:          0  MISS:          0
cpu0_ITLB TRANSLATION ACCESS:          0  HIT:          0  MISS:          0
cpu0_ITLB PREFETCH  REQUESTED:          0  ISSUED:          0  USEFUL:          0  USELESS:          0
cpu0_ITLB AVERAGE MISS LATENCY: -nan cycles
cpu0_L1I TOTAL     ACCESS:         86  HIT:         86  MISS:          0
cpu0_L1I LOAD      ACCESS:         86  HIT:         86  MISS:          0
cpu0_L1I RFO       ACCESS:          0  HIT:          0  MISS:          0
cpu0_L1I PREFETCH  ACCESS:          0  HIT:          0  MISS:          0
cpu0_L1I WRITEBACK ACCESS:          0  HIT:          0  MISS:          0
cpu0_L1I TRANSLATION ACCESS:          0  HIT:          0  MISS:          0
cpu0_L1I PREFETCH  REQUESTED:          0  ISSUED:          0  USEFUL:          0  USELESS:          0
cpu0_L1I AVERAGE MISS LATENCY: -nan cycles
cpu0_STLB TOTAL     ACCESS:     733782  HIT:     397124  MISS:     336658
cpu0_STLB LOAD      ACCESS:     477190  HIT:     309935  MISS:     167255
cpu0_STLB RFO       ACCESS:     256592  HIT:      87189  MISS:     169403
cpu0_STLB PREFETCH  ACCESS:          0  HIT:          0  MISS:          0
cpu0_STLB WRITEBACK ACCESS:          0  HIT:          0  MISS:          0
cpu0_STLB TRANSLATION ACCESS:          0  HIT:          0  MISS:          0
cpu0_STLB PREFETCH  REQUESTED:          0  ISSUED:          0  USEFUL:          0  USELESS:          0
cpu0_STLB AVERAGE MISS LATENCY: 10.4562 cycles
cpu0_L1D TOTAL     ACCESS:    6894579  HIT:    4806816  MISS:    2087763
cpu0_L1D LOAD      ACCESS:    5226043  HIT:    3151748  MISS:    2074295
cpu0_L1D RFO       ACCESS:    1299133  HIT:    1288101  MISS:      11032
cpu0_L1D PREFETCH  ACCESS:      41850  HIT:      40808  MISS:       1042
cpu0_L1D WRITEBACK ACCESS:          0  HIT:          0  MISS:          0
cpu0_L1D TRANSLATION ACCESS:     327553  HIT:     326159  MISS:       1394
cpu0_L1D PREFETCH  REQUESTED:     103233  ISSUED:      41851  USEFUL:        581  USELESS:        461
cpu0_L1D AVERAGE MISS LATENCY: 162.898 cycles
cpu0_L2C TOTAL     ACCESS:    3417365  HIT:    1357787  MISS:    2059578
cpu0_L2C LOAD      ACCESS:    2074295  HIT:     338859  MISS:    1735436
cpu0_L2C RFO       ACCESS:      11032  HIT:        109  MISS:      10923
cpu0_L2C PREFETCH  ACCESS:     681821  HIT:     368675  MISS:     313146
cpu0_L2C WRITEBACK ACCESS:     648823  HIT:     648800  MISS:         23
cpu0_L2C TRANSLATION ACCESS:       1394  HIT:       1344  MISS:         50
cpu0_L2C PREFETCH  REQUESTED:     738886  ISSUED:     725833  USEFUL:     152189  USELESS:     174572
cpu0_L2C AVERAGE MISS LATENCY: 193.01 cycles
LLC TOTAL     ACCESS:    2695050  HIT:    1280702  MISS:    1414348
LLC LOAD      ACCESS:    1722108  HIT:     603363  MISS:    1118745
LLC RFO       ACCESS:      10923  HIT:        508  MISS:      10415
LLC PREFETCH  ACCESS:     327238  HIT:      42162  MISS:     285076
LLC WRITEBACK ACCESS:     634731  HIT:     634658  MISS:         73
LLC TRANSLATION ACCESS:         50  HIT:         11  MISS:         39
LLC PREFETCH  REQUESTED:          0  ISSUED:          0  USEFUL:          0  USELESS:          0
LLC AVERAGE MISS LATENCY: 254.82 cycles

DRAM Statistics
 CHANNEL 0
 RQ ROW_BUFFER_HIT:     124382  ROW_BUFFER_MISS:    1289178
 DBUS AVG_CONGESTED_CYCLE:    3.95531
 WQ ROW_BUFFER_HIT:       1226  ROW_BUFFER_MISS:     546632  FULL:          0


CPU 0 Branch Prediction Accuracy: 81.1279% MPKI: 35.6282 Average ROB Occupancy at Mispredict: 24.619
Branch type MPKI
BRANCH_DIRECT_JUMP: 0
BRANCH_INDIRECT: 0
BRANCH_CONDITIONAL: 35.6282
BRANCH_DIRECT_CALL: 0
BRANCH_INDIRECT_CALL: 0
BRANCH_RETURN: 0

