
*** ChampSim Multicore Out-of-Order Simulator ***

Warmup Instructions: 25000000
Simulation Instructions: 25000000
Number of CPUs: 1
Off-chip DRAM Size: 4 GiB Channels: 1 Width: 64-bit Data Rate: 3200 MT/s

VirtualMemory physical capacity: 8588881920 num_ppages: 2096895
VirtualMemory page size: 4096 log2_page_size: 12

CPU 0 runs traces/603.bwaves_s-1740B.champsimtrace.xz
CPU 0 Bimodal branch predictor
Basic BTB sets: 1024 ways: 8 indirect buffer size: 4096 RAS size: 64
Stream Prefetcher Initialized
Stream Prefetcher Initialized
WARNING: The extended signature CACHE::prefetch_line(ip, base_addr, pf_addr, fill_this_level, prefetch_metadata) is deprecated.
WARNING: Use CACHE::prefetch_line(pf_addr, fill_this_level, prefetch_metadata) instead.
Heartbeat CPU 0 instructions: 10000001 cycles: 3642288 heartbeat IPC: 2.74553 cumulative IPC: 2.74553 (Simulation time: 0 hr 0 min 45 sec) 
Heartbeat CPU 0 instructions: 20000001 cycles: 7284434 heartbeat IPC: 2.74563 cumulative IPC: 2.74558 (Simulation time: 0 hr 1 min 27 sec) 

Warmup complete CPU 0 instructions: 25000001 cycles: 9105488 (Simulation time: 0 hr 1 min 48 sec) 

Heartbeat CPU 0 instructions: 30000003 cycles: 23283494 heartbeat IPC: 0.625037 cumulative IPC: 0.352659 (Simulation time: 0 hr 2 min 59 sec) 
Heartbeat CPU 0 instructions: 40000001 cycles: 51637402 heartbeat IPC: 0.352685 cumulative IPC: 0.352676 (Simulation time: 0 hr 5 min 21 sec) 
Heartbeat CPU 0 instructions: 50000001 cycles: 79987121 heartbeat IPC: 0.352737 cumulative IPC: 0.352701 (Simulation time: 0 hr 7 min 44 sec) 
Finished CPU 0 instructions: 25000000 cycles: 70881633 cumulative IPC: 0.352701 (Simulation time: 0 hr 7 min 44 sec) 

ChampSim completed all CPUs

Region of Interest Statistics

CPU 0 cumulative IPC: 0.352701 instructions: 25000000 cycles: 70881633
cpu0_DTLB TOTAL     ACCESS:    7858530  HIT:    7829323  MISS:      29207
cpu0_DTLB LOAD      ACCESS:    7303005  HIT:    7278665  MISS:      24340
cpu0_DTLB RFO       ACCESS:     555525  HIT:     550658  MISS:       4867
cpu0_DTLB PREFETCH  ACCESS:          0  HIT:          0  MISS:          0
cpu0_DTLB WRITEBACK ACCESS:          0  HIT:          0  MISS:          0
cpu0_DTLB TRANSLATION ACCESS:          0  HIT:          0  MISS:          0
cpu0_DTLB PREFETCH  REQUESTED:          0  ISSUED:          0  USEFUL:          0  USELESS:          0
cpu0_DTLB AVERAGE MISS LATENCY: 73.8639 cycles
cpu0_ITLB TOTAL     ACCESS:    2203605  HIT:    2203605  MISS:          0
cpu0_ITLB LOAD      ACCESS:    2203605  HIT:    2203605  MISS:          0
cpu0_ITLB RFO       ACCESS:          0  HIT:          0  MISS:          0
cpu0_ITLB PREFETCH  ACCESS:          0  HIT:          0  MISS:          0
cpu0_ITLB WRITEBACK ACCESS:          0  HIT:          0  MISS:          0
cpu0_ITLB TRANSLATION ACCESS:          0  HIT:          0  MISS:          0
cpu0_ITLB PREFETCH  REQUESTED:          0  ISSUED:          0  USEFUL:          0  USELESS:          0
cpu0_ITLB AVERAGE MISS LATENCY: -nan cycles
cpu0_STLB TOTAL     ACCESS:      29207  HIT:      21783  MISS:       7424
cpu0_STLB LOAD      ACCESS:      24340  HIT:      17106  MISS:       7234
cpu0_STLB RFO       ACCESS:       4867  HIT:       4677  MISS:        190
cpu0_STLB PREFETCH  ACCESS:          0  HIT:          0  MISS:          0
cpu0_STLB WRITEBACK ACCESS:          0  HIT:          0  MISS:          0
cpu0_STLB TRANSLATION ACCESS:          0  HIT:          0  MISS:          0
cpu0_STLB PREFETCH  REQUESTED:          0  ISSUED:          0  USEFUL:          0  USELESS:          0
cpu0_STLB AVERAGE MISS LATENCY: 254.395 cycles
cpu0_L1D TOTAL     ACCESS:    7967458  HIT:    7464372  MISS:     503086
cpu0_L1D LOAD      ACCESS:    6506356  HIT:    6018729  MISS:     487627
cpu0_L1D RFO       ACCESS:    1389112  HIT:    1376931  MISS:      12181
cpu0_L1D PREFETCH  ACCESS:      64566  HIT:      61829  MISS:       2737
cpu0_L1D WRITEBACK ACCESS:          0  HIT:          0  MISS:          0
cpu0_L1D TRANSLATION ACCESS:       7424  HIT:       6883  MISS:        541
cpu0_L1D PREFETCH  REQUESTED:     177135  ISSUED:      64883  USEFUL:       2524  USELESS:        211
cpu0_L1D AVERAGE MISS LATENCY: 1146.14 cycles
cpu0_L2C TOTAL     ACCESS:     515890  HIT:      40542  MISS:     475348
cpu0_L2C LOAD      ACCESS:     487627  HIT:      24584  MISS:     463043
cpu0_L2C RFO       ACCESS:      12181  HIT:          0  MISS:      12181
cpu0_L2C PREFETCH  ACCESS:       3176  HIT:       3084  MISS:         92
cpu0_L2C WRITEBACK ACCESS:      12365  HIT:      12365  MISS:          0
cpu0_L2C TRANSLATION ACCESS:        541  HIT:        509  MISS:         32
cpu0_L2C PREFETCH  REQUESTED:        366  ISSUED:        122  USEFUL:          4  USELESS:          0
cpu0_L2C AVERAGE MISS LATENCY: 1200.95 cycles
LLC TOTAL     ACCESS:     487561  HIT:      12427  MISS:     475134
LLC LOAD      ACCESS:     463043  HIT:        150  MISS:     462893
LLC RFO       ACCESS:      12181  HIT:          0  MISS:      12181
LLC PREFETCH  ACCESS:         92  HIT:         53  MISS:         39
LLC WRITEBACK ACCESS:      12213  HIT:      12211  MISS:          2
LLC TRANSLATION ACCESS:         32  HIT:         13  MISS:         19
LLC PREFETCH  REQUESTED:          0  ISSUED:          0  USEFUL:          0  USELESS:          0
LLC AVERAGE MISS LATENCY: 1180.48 cycles

DRAM Statistics
 CHANNEL 0
 RQ ROW_BUFFER_HIT:         24  ROW_BUFFER_MISS:     475108
 DBUS AVG_CONGESTED_CYCLE:     3.9998
 WQ ROW_BUFFER_HIT:       3026  ROW_BUFFER_MISS:       9409  FULL:          0


CPU 0 Branch Prediction Accuracy: 62.4635% MPKI: 9.3696 Average ROB Occupancy at Mispredict: 291.134
Branch type MPKI
BRANCH_DIRECT_JUMP: 0
BRANCH_INDIRECT: 0
BRANCH_CONDITIONAL: 9.3696
BRANCH_DIRECT_CALL: 0
BRANCH_INDIRECT_CALL: 0
BRANCH_RETURN: 0

