
*** ChampSim Multicore Out-of-Order Simulator ***

Warmup Instructions: 25000000
Simulation Instructions: 25000000
Number of CPUs: 1
Off-chip DRAM Size: 4 GiB Channels: 1 Width: 64-bit Data Rate: 3200 MT/s

VirtualMemory physical capacity: 8588881920 num_ppages: 2096895
VirtualMemory page size: 4096 log2_page_size: 12

CPU 0 runs traces/bc-0.trace.gz
CPU 0 Bimodal branch predictor
Basic BTB sets: 1024 ways: 8 indirect buffer size: 4096 RAS size: 64
Stream Prefetcher Initialized
cpu0_L2C IP-based stride prefetcher
WARNING: The extended signature CACHE::prefetch_line(ip, base_addr, pf_addr, fill_this_level, prefetch_metadata) is deprecated.
WARNING: Use CACHE::prefetch_line(pf_addr, fill_this_level, prefetch_metadata) instead.
Heartbeat CPU 0 instructions: 10000002 cycles: 3203422 heartbeat IPC: 3.12166 cumulative IPC: 3.12166 (Simulation time: 0 hr 0 min 34 sec) 
Heartbeat CPU 0 instructions: 20000002 cycles: 5712246 heartbeat IPC: 3.98593 cumulative IPC: 3.50125 (Simulation time: 0 hr 0 min 58 sec) 

Warmup complete CPU 0 instructions: 25000001 cycles: 6963676 (Simulation time: 0 hr 1 min 10 sec) 

Heartbeat CPU 0 instructions: 30000001 cycles: 40167553 heartbeat IPC: 0.290231 cumulative IPC: 0.150585 (Simulation time: 0 hr 1 min 43 sec) 
Heartbeat CPU 0 instructions: 40000002 cycles: 108384756 heartbeat IPC: 0.146591 cumulative IPC: 0.147898 (Simulation time: 0 hr 2 min 54 sec) 
Heartbeat CPU 0 instructions: 50000002 cycles: 176465767 heartbeat IPC: 0.146884 cumulative IPC: 0.147491 (Simulation time: 0 hr 4 min 13 sec) 
Finished CPU 0 instructions: 25000001 cycles: 169502091 cumulative IPC: 0.147491 (Simulation time: 0 hr 4 min 13 sec) 

ChampSim completed all CPUs

Region of Interest Statistics

CPU 0 cumulative IPC: 0.147491 instructions: 25000001 cycles: 169502091
cpu0_DTLB TOTAL     ACCESS:    5776237  HIT:    5042455  MISS:     733782
cpu0_DTLB LOAD      ACCESS:    4548929  HIT:    4071742  MISS:     477187
cpu0_DTLB RFO       ACCESS:    1227308  HIT:     970713  MISS:     256595
cpu0_DTLB PREFETCH  ACCESS:          0  HIT:          0  MISS:          0
cpu0_DTLB WRITEBACK ACCESS:          0  HIT:          0  MISS:          0
cpu0_DTLB TRANSLATION ACCESS:          0  HIT:          0  MISS:          0
cpu0_DTLB PREFETCH  REQUESTED:          0  ISSUED:          0  USEFUL:          0  USELESS:          0
cpu0_DTLB AVERAGE MISS LATENCY: 13.8775 cycles
cpu0_ITLB TOTAL     ACCESS:    3107160  HIT:    3107160  MISS:          0
cpu0_ITLB LOAD      ACCESS:    3107160  HIT:    3107160  MISS:          0
cpu0_ITLB RFO       ACCESS:          0  HIT:          0  MISS:          0
cpu0_ITLB PREFETCH  ACCESS:          0  HIT:          0  MISS:          0
cpu0_ITLB WRITEBACK ACCESS:          0  HIT:          0  MISS:          0
cpu0_ITLB TRANSLATION ACCESS:          0  HIT:          0  MISS:          0
cpu0_ITLB PREFETCH  REQUESTED:          0  ISSUED:          0  USEFUL:          0  USELESS:          0
cpu0_ITLB AVERAGE MISS LATENCY: -nan cycles
cpu0_L1I TOTAL     ACCESS:         86  HIT:         86  MISS:          0
cpu0_L1I LOAD      ACCESS:         86  HIT:         86  MISS:          0
cpu0_L1I RFO       ACCESS:          0  HIT:          0  MISS:          0
cpu0_L1I PREFETCH  ACCESS:          0  HIT:          0  MISS:          0
cpu0_L1I WRITEBACK ACCESS:          0  HIT:          0  MISS:          0
cpu0_L1I TRANSLATION ACCESS:          0  HIT:          0  MISS:          0
cpu0_L1I PREFETCH  REQUESTED:          0  ISSUED:          0  USEFUL:          0  USELESS:          0
cpu0_L1I AVERAGE MISS LATENCY: -nan cycles
cpu0_STLB TOTAL     ACCESS:     733782  HIT:     397124  MISS:     336658
cpu0_STLB LOAD      ACCESS:     477187  HIT:     309935  MISS:     167252
cpu0_STLB RFO       ACCESS:     256595  HIT:      87189  MISS:     169406
cpu0_STLB PREFETCH  ACCESS:          0  HIT:          0  MISS:          0
cpu0_STLB WRITEBACK ACCESS:          0  HIT:          0  MISS:          0
cpu0_STLB TRANSLATION ACCESS:          0  HIT:          0  MISS:          0
cpu0_STLB PREFETCH  REQUESTED:          0  ISSUED:          0  USEFUL:          0  USELESS:          0
cpu0_STLB AVERAGE MISS LATENCY: 10.4519 cycles
cpu0_L1D TOTAL     ACCESS:    6898304  HIT:    4810553  MISS:    2087751
cpu0_L1D LOAD      ACCESS:    5229688  HIT:    3155393  MISS:    2074295
cpu0_L1D RFO       ACCESS:    1299215  HIT:    1288183  MISS:      11032
cpu0_L1D PREFETCH  ACCESS:      41848  HIT:      40818  MISS:       1030
cpu0_L1D WRITEBACK ACCESS:          0  HIT:          0  MISS:          0
cpu0_L1D TRANSLATION ACCESS:     327553  HIT:     326159  MISS:       1394
cpu0_L1D PREFETCH  REQUESTED:     103275  ISSUED:      41849  USEFUL:        573  USELESS:        457
cpu0_L1D AVERAGE MISS LATENCY: 160.918 cycles
cpu0_L2C TOTAL     ACCESS:    3028174  HIT:    1074560  MISS:    1953614
cpu0_L2C LOAD      ACCESS:    2074295  HIT:     327602  MISS:    1746693
cpu0_L2C RFO       ACCESS:      11032  HIT:        123  MISS:      10909
cpu0_L2C PREFETCH  ACCESS:     292631  HIT:      96688  MISS:     195943
cpu0_L2C WRITEBACK ACCESS:     648822  HIT:     648801  MISS:         21
cpu0_L2C TRANSLATION ACCESS:       1394  HIT:       1346  MISS:         48
cpu0_L2C PREFETCH  REQUESTED:     316110  ISSUED:     311103  USEFUL:     115866  USELESS:      86917
cpu0_L2C AVERAGE MISS LATENCY: 183.481 cycles
LLC TOTAL     ACCESS:    2588028  HIT:    1276541  MISS:    1311487
LLC LOAD      ACCESS:    1739867  HIT:     621045  MISS:    1118822
LLC RFO       ACCESS:      10909  HIT:        527  MISS:      10382
LLC PREFETCH  ACCESS:     202969  HIT:      20798  MISS:     182171
LLC WRITEBACK ACCESS:     634235  HIT:     634160  MISS:         75
LLC TRANSLATION ACCESS:         48  HIT:         11  MISS:         37
LLC PREFETCH  REQUESTED:          0  ISSUED:          0  USEFUL:          0  USELESS:          0
LLC AVERAGE MISS LATENCY: 243.867 cycles

DRAM Statistics
 CHANNEL 0
 RQ ROW_BUFFER_HIT:      79935  ROW_BUFFER_MISS:    1230757
 DBUS AVG_CONGESTED_CYCLE:    3.95871
 WQ ROW_BUFFER_HIT:       1060  ROW_BUFFER_MISS:     540694  FULL:          0


CPU 0 Branch Prediction Accuracy: 81.1279% MPKI: 35.6282 Average ROB Occupancy at Mispredict: 24.1221
Branch type MPKI
BRANCH_DIRECT_JUMP: 0
BRANCH_INDIRECT: 0
BRANCH_CONDITIONAL: 35.6282
BRANCH_DIRECT_CALL: 0
BRANCH_INDIRECT_CALL: 0
BRANCH_RETURN: 0

