
*** ChampSim Multicore Out-of-Order Simulator ***

Warmup Instructions: 25000000
Simulation Instructions: 25000000
Number of CPUs: 1
Off-chip DRAM Size: 4 GiB Channels: 1 Width: 64-bit Data Rate: 3200 MT/s

VirtualMemory physical capacity: 8588881920 num_ppages: 2096895
VirtualMemory page size: 4096 log2_page_size: 12

CPU 0 runs traces/603.bwaves_s-1740B.champsimtrace.xz
CPU 0 Bimodal branch predictor
Basic BTB sets: 1024 ways: 8 indirect buffer size: 4096 RAS size: 64
Stream Prefetcher Initialized
cpu0_L2C IP-based stride prefetcher
WARNING: The extended signature CACHE::prefetch_line(ip, base_addr, pf_addr, fill_this_level, prefetch_metadata) is deprecated.
WARNING: Use CACHE::prefetch_line(pf_addr, fill_this_level, prefetch_metadata) instead.
Heartbeat CPU 0 instructions: 10000003 cycles: 3642289 heartbeat IPC: 2.74553 cumulative IPC: 2.74553 (Simulation time: 0 hr 0 min 34 sec) 
Heartbeat CPU 0 instructions: 20000001 cycles: 7284431 heartbeat IPC: 2.74564 cumulative IPC: 2.74558 (Simulation time: 0 hr 1 min 8 sec) 

Warmup complete CPU 0 instructions: 25000001 cycles: 9105488 (Simulation time: 0 hr 1 min 25 sec) 

Heartbeat CPU 0 instructions: 30000003 cycles: 15831107 heartbeat IPC: 1.17005 cumulative IPC: 0.743426 (Simulation time: 0 hr 1 min 59 sec) 
Heartbeat CPU 0 instructions: 40000001 cycles: 29275777 heartbeat IPC: 0.743789 cumulative IPC: 0.743668 (Simulation time: 0 hr 3 min 10 sec) 
Heartbeat CPU 0 instructions: 50000002 cycles: 42734702 heartbeat IPC: 0.743001 cumulative IPC: 0.743401 (Simulation time: 0 hr 4 min 19 sec) 
Finished CPU 0 instructions: 25000001 cycles: 33629214 cumulative IPC: 0.743401 (Simulation time: 0 hr 4 min 19 sec) 

ChampSim completed all CPUs

Region of Interest Statistics

CPU 0 cumulative IPC: 0.743401 instructions: 25000001 cycles: 33629214
cpu0_DTLB TOTAL     ACCESS:    7983201  HIT:    7954449  MISS:      28752
cpu0_DTLB LOAD      ACCESS:    7415189  HIT:    7391288  MISS:      23901
cpu0_DTLB RFO       ACCESS:     568012  HIT:     563161  MISS:       4851
cpu0_DTLB PREFETCH  ACCESS:          0  HIT:          0  MISS:          0
cpu0_DTLB WRITEBACK ACCESS:          0  HIT:          0  MISS:          0
cpu0_DTLB TRANSLATION ACCESS:          0  HIT:          0  MISS:          0
cpu0_DTLB PREFETCH  REQUESTED:          0  ISSUED:          0  USEFUL:          0  USELESS:          0
cpu0_DTLB AVERAGE MISS LATENCY: 74.3754 cycles
cpu0_ITLB TOTAL     ACCESS:    2216713  HIT:    2216713  MISS:          0
cpu0_ITLB LOAD      ACCESS:    2216713  HIT:    2216713  MISS:          0
cpu0_ITLB RFO       ACCESS:          0  HIT:          0  MISS:          0
cpu0_ITLB PREFETCH  ACCESS:          0  HIT:          0  MISS:          0
cpu0_ITLB WRITEBACK ACCESS:          0  HIT:          0  MISS:          0
cpu0_ITLB TRANSLATION ACCESS:          0  HIT:          0  MISS:          0
cpu0_ITLB PREFETCH  REQUESTED:          0  ISSUED:          0  USEFUL:          0  USELESS:          0
cpu0_ITLB AVERAGE MISS LATENCY: -nan cycles
cpu0_STLB TOTAL     ACCESS:      28752  HIT:      21328  MISS:       7424
cpu0_STLB LOAD      ACCESS:      23901  HIT:      16667  MISS:       7234
cpu0_STLB RFO       ACCESS:       4851  HIT:       4661  MISS:        190
cpu0_STLB PREFETCH  ACCESS:          0  HIT:          0  MISS:          0
cpu0_STLB WRITEBACK ACCESS:          0  HIT:          0  MISS:          0
cpu0_STLB TRANSLATION ACCESS:          0  HIT:          0  MISS:          0
cpu0_STLB PREFETCH  REQUESTED:          0  ISSUED:          0  USEFUL:          0  USELESS:          0
cpu0_STLB AVERAGE MISS LATENCY: 252.455 cycles
cpu0_L1D TOTAL     ACCESS:    8281153  HIT:    7778057  MISS:     503096
cpu0_L1D LOAD      ACCESS:    6836013  HIT:    6348381  MISS:     487632
cpu0_L1D RFO       ACCESS:    1369672  HIT:    1357491  MISS:      12181
cpu0_L1D PREFETCH  ACCESS:      68044  HIT:      65297  MISS:       2747
cpu0_L1D WRITEBACK ACCESS:          0  HIT:          0  MISS:          0
cpu0_L1D TRANSLATION ACCESS:       7424  HIT:       6888  MISS:        536
cpu0_L1D PREFETCH  REQUESTED:     186399  ISSUED:      68299  USEFUL:       2507  USELESS:        238
cpu0_L1D AVERAGE MISS LATENCY: 255.808 cycles
cpu0_L2C TOTAL     ACCESS:     996363  HIT:     521063  MISS:     475300
cpu0_L2C LOAD      ACCESS:     487632  HIT:     248493  MISS:     239139
cpu0_L2C RFO       ACCESS:      12181  HIT:          0  MISS:      12181
cpu0_L2C PREFETCH  ACCESS:     483648  HIT:     259701  MISS:     223947
cpu0_L2C WRITEBACK ACCESS:      12366  HIT:      12366  MISS:          0
cpu0_L2C TRANSLATION ACCESS:        536  HIT:        503  MISS:         33
cpu0_L2C PREFETCH  REQUESTED:     950586  ISSUED:     925611  USEFUL:     392492  USELESS:          0
cpu0_L2C AVERAGE MISS LATENCY: 461.947 cycles
LLC TOTAL     ACCESS:     577837  HIT:     102711  MISS:     475126
LLC LOAD      ACCESS:      70501  HIT:      32933  MISS:      37568
LLC RFO       ACCESS:      12181  HIT:          0  MISS:      12181
LLC PREFETCH  ACCESS:     482909  HIT:      57554  MISS:     425355
LLC WRITEBACK ACCESS:      12213  HIT:      12211  MISS:          2
LLC TRANSLATION ACCESS:         33  HIT:         13  MISS:         20
LLC PREFETCH  REQUESTED:          0  ISSUED:          0  USEFUL:          0  USELESS:          0
LLC AVERAGE MISS LATENCY: 962.609 cycles

DRAM Statistics
 CHANNEL 0
 RQ ROW_BUFFER_HIT:       1938  ROW_BUFFER_MISS:     473186
 DBUS AVG_CONGESTED_CYCLE:    3.98966
 WQ ROW_BUFFER_HIT:       3867  ROW_BUFFER_MISS:       8556  FULL:          0


CPU 0 Branch Prediction Accuracy: 62.4635% MPKI: 9.3696 Average ROB Occupancy at Mispredict: 291.655
Branch type MPKI
BRANCH_DIRECT_JUMP: 0
BRANCH_INDIRECT: 0
BRANCH_CONDITIONAL: 9.3696
BRANCH_DIRECT_CALL: 0
BRANCH_INDIRECT_CALL: 0
BRANCH_RETURN: 0

