
*** ChampSim Multicore Out-of-Order Simulator ***

Warmup Instructions: 25000000
Simulation Instructions: 25000000
Number of CPUs: 1
Off-chip DRAM Size: 4 GiB Channels: 1 Width: 64-bit Data Rate: 3200 MT/s

VirtualMemory physical capacity: 8588881920 num_ppages: 2096895
VirtualMemory page size: 4096 log2_page_size: 12

CPU 0 runs traces/bc-0.trace.gz
CPU 0 Bimodal branch predictor
Basic BTB sets: 1024 ways: 8 indirect buffer size: 4096 RAS size: 64
Stream Prefetcher Initialized
cpu0_L2C IP-based stride prefetcher
WARNING: The extended signature CACHE::prefetch_line(ip, base_addr, pf_addr, fill_this_level, prefetch_metadata) is deprecated.
WARNING: Use CACHE::prefetch_line(pf_addr, fill_this_level, prefetch_metadata) instead.
Heartbeat CPU 0 instructions: 10000002 cycles: 3203424 heartbeat IPC: 3.12166 cumulative IPC: 3.12166 (Simulation time: 0 hr 0 min 32 sec) 
Heartbeat CPU 0 instructions: 20000001 cycles: 5712248 heartbeat IPC: 3.98593 cumulative IPC: 3.50125 (Simulation time: 0 hr 0 min 55 sec) 

Warmup complete CPU 0 instructions: 25000001 cycles: 6963679 (Simulation time: 0 hr 1 min 6 sec) 

Heartbeat CPU 0 instructions: 30000001 cycles: 40306388 heartbeat IPC: 0.289066 cumulative IPC: 0.149958 (Simulation time: 0 hr 1 min 39 sec) 
Heartbeat CPU 0 instructions: 40000002 cycles: 108661229 heartbeat IPC: 0.146295 cumulative IPC: 0.147496 (Simulation time: 0 hr 2 min 48 sec) 
Heartbeat CPU 0 instructions: 50000002 cycles: 176802649 heartbeat IPC: 0.146754 cumulative IPC: 0.147198 (Simulation time: 0 hr 3 min 57 sec) 
Finished CPU 0 instructions: 25000001 cycles: 169838970 cumulative IPC: 0.147198 (Simulation time: 0 hr 3 min 57 sec) 

ChampSim completed all CPUs

Region of Interest Statistics

CPU 0 cumulative IPC: 0.147198 instructions: 25000001 cycles: 169838970
cpu0_DTLB TOTAL     ACCESS:    5775277  HIT:    5041495  MISS:     733782
cpu0_DTLB LOAD      ACCESS:    4547951  HIT:    4070761  MISS:     477190
cpu0_DTLB RFO       ACCESS:    1227326  HIT:     970734  MISS:     256592
cpu0_DTLB PREFETCH  ACCESS:          0  HIT:          0  MISS:          0
cpu0_DTLB WRITEBACK ACCESS:          0  HIT:          0  MISS:          0
cpu0_DTLB TRANSLATION ACCESS:          0  HIT:          0  MISS:          0
cpu0_DTLB PREFETCH  REQUESTED:          0  ISSUED:          0  USEFUL:          0  USELESS:          0
cpu0_DTLB AVERAGE MISS LATENCY: 13.8844 cycles
cpu0_ITLB TOTAL     ACCESS:    3107161  HIT:    3107161  MISS:          0
cpu0_ITLB LOAD      ACCESS:    3107161  HIT:    3107161  MISS:          0
cpu0_ITLB RFO       ACCESS:          0  HIT:          0  MISS:          0
cpu0_ITLB PREFETCH  ACCESS:          0  HIT:          0  MISS:          0
cpu0_ITLB WRITEBACK ACCESS:          0  HIT:          0  MISS:          0
cpu0_ITLB TRANSLATION ACCESS:          0  HIT:          0  MISS:          0
cpu0_ITLB PREFETCH  REQUESTED:          0  ISSUED:          0  USEFUL:          0  USELESS:          0
cpu0_ITLB AVERAGE MISS LATENCY: -nan cycles
cpu0_L1I TOTAL     ACCESS:         86  HIT:         86  MISS:          0
cpu0_L1I LOAD      ACCESS:         86  HIT:         86  MISS:          0
cpu0_L1I RFO       ACCESS:          0  HIT:          0  MISS:          0
cpu0_L1I PREFETCH  ACCESS:          0  HIT:          0  MISS:          0
cpu0_L1I WRITEBACK ACCESS:          0  HIT:          0  MISS:          0
cpu0_L1I TRANSLATION ACCESS:          0  HIT:          0  MISS:          0
cpu0_L1I PREFETCH  REQUESTED:          0  ISSUED:          0  USEFUL:          0  USELESS:          0
cpu0_L1I AVERAGE MISS LATENCY: -nan cycles
cpu0_STLB TOTAL     ACCESS:     733782  HIT:     397124  MISS:     336658
cpu0_STLB LOAD      ACCESS:     477190  HIT:     309935  MISS:     167255
cpu0_STLB RFO       ACCESS:     256592  HIT:      87189  MISS:     169403
cpu0_STLB PREFETCH  ACCESS:          0  HIT:          0  MISS:          0
cpu0_STLB WRITEBACK ACCESS:          0  HIT:          0  MISS:          0
cpu0_STLB TRANSLATION ACCESS:          0  HIT:          0  MISS:          0
cpu0_STLB PREFETCH  REQUESTED:          0  ISSUED:          0  USEFUL:          0  USELESS:          0
cpu0_STLB AVERAGE MISS LATENCY: 10.4669 cycles
cpu0_L1D TOTAL     ACCESS:    6895825  HIT:    4808063  MISS:    2087762
cpu0_L1D LOAD      ACCESS:    5227291  HIT:    3152996  MISS:    2074295
cpu0_L1D RFO       ACCESS:    1299128  HIT:    1288096  MISS:      11032
cpu0_L1D PREFETCH  ACCESS:      41853  HIT:      40812  MISS:       1041
cpu0_L1D WRITEBACK ACCESS:          0  HIT:          0  MISS:          0
cpu0_L1D TRANSLATION ACCESS:     327553  HIT:     326159  MISS:       1394
cpu0_L1D PREFETCH  REQUESTED:     103251  ISSUED:      41855  USEFUL:        582  USELESS:        459
cpu0_L1D AVERAGE MISS LATENCY: 162.393 cycles
cpu0_L2C TOTAL     ACCESS:    3293060  HIT:    1265587  MISS:    2027473
cpu0_L2C LOAD      ACCESS:    2074295  HIT:     335306  MISS:    1738989
cpu0_L2C RFO       ACCESS:      11032  HIT:        114  MISS:      10918
cpu0_L2C PREFETCH  ACCESS:     557517  HIT:     280021  MISS:     277496
cpu0_L2C WRITEBACK ACCESS:     648822  HIT:     648801  MISS:         21
cpu0_L2C TRANSLATION ACCESS:       1394  HIT:       1345  MISS:         49
cpu0_L2C PREFETCH  REQUESTED:     603860  ISSUED:     592991  USEFUL:     140898  USELESS:     147963
cpu0_L2C AVERAGE MISS LATENCY: 189.701 cycles
LLC TOTAL     ACCESS:    2662614  HIT:    1279539  MISS:    1383075
LLC LOAD      ACCESS:    1727832  HIT:     608597  MISS:    1119235
LLC RFO       ACCESS:      10918  HIT:        515  MISS:      10403
LLC PREFETCH  ACCESS:     289247  HIT:      35920  MISS:     253327
LLC WRITEBACK ACCESS:     634568  HIT:     634496  MISS:         72
LLC TRANSLATION ACCESS:         49  HIT:         11  MISS:         38
LLC PREFETCH  REQUESTED:          0  ISSUED:          0  USEFUL:          0  USELESS:          0
LLC AVERAGE MISS LATENCY: 250.827 cycles

DRAM Statistics
 CHANNEL 0
 RQ ROW_BUFFER_HIT:     108368  ROW_BUFFER_MISS:    1273903
 DBUS AVG_CONGESTED_CYCLE:    3.95719
 WQ ROW_BUFFER_HIT:       1222  ROW_BUFFER_MISS:     544941  FULL:          0


CPU 0 Branch Prediction Accuracy: 81.1279% MPKI: 35.6282 Average ROB Occupancy at Mispredict: 24.4283
Branch type MPKI
BRANCH_DIRECT_JUMP: 0
BRANCH_INDIRECT: 0
BRANCH_CONDITIONAL: 35.6282
BRANCH_DIRECT_CALL: 0
BRANCH_INDIRECT_CALL: 0
BRANCH_RETURN: 0

