
*** ChampSim Multicore Out-of-Order Simulator ***

Warmup Instructions: 25000000
Simulation Instructions: 25000000
Number of CPUs: 1
Off-chip DRAM Size: 4 GiB Channels: 1 Width: 64-bit Data Rate: 3200 MT/s

VirtualMemory physical capacity: 8588881920 num_ppages: 2096895
VirtualMemory page size: 4096 log2_page_size: 12

CPU 0 runs traces/sssp-3.trace.gz
CPU 0 Bimodal branch predictor
Basic BTB sets: 1024 ways: 8 indirect buffer size: 4096 RAS size: 64
Stream Prefetcher Initialized
cpu0_L2C IP-based stride prefetcher
WARNING: The extended signature CACHE::prefetch_line(ip, base_addr, pf_addr, fill_this_level, prefetch_metadata) is deprecated.
WARNING: Use CACHE::prefetch_line(pf_addr, fill_this_level, prefetch_metadata) instead.
Heartbeat CPU 0 instructions: 10000002 cycles: 2980390 heartbeat IPC: 3.35527 cumulative IPC: 3.35527 (Simulation time: 0 hr 0 min 27 sec) 
Heartbeat CPU 0 instructions: 20000001 cycles: 6362330 heartbeat IPC: 2.95688 cumulative IPC: 3.1435 (Simulation time: 0 hr 0 min 58 sec) 

Warmup complete CPU 0 instructions: 25000004 cycles: 8126911 (Simulation time: 0 hr 1 min 14 sec) 

Heartbeat CPU 0 instructions: 30000002 cycles: 23198508 heartbeat IPC: 0.593959 cumulative IPC: 0.33175 (Simulation time: 0 hr 1 min 37 sec) 
Heartbeat CPU 0 instructions: 40000001 cycles: 54138427 heartbeat IPC: 0.323207 cumulative IPC: 0.326005 (Simulation time: 0 hr 2 min 24 sec) 
Heartbeat CPU 0 instructions: 50000002 cycles: 83874725 heartbeat IPC: 0.336289 cumulative IPC: 0.330043 (Simulation time: 0 hr 3 min 13 sec) 
Finished CPU 0 instructions: 25000000 cycles: 75747832 cumulative IPC: 0.330042 (Simulation time: 0 hr 3 min 13 sec) 

ChampSim completed all CPUs

Region of Interest Statistics

CPU 0 cumulative IPC: 0.330042 instructions: 25000000 cycles: 75747832
cpu0_DTLB TOTAL     ACCESS:    6304062  HIT:    5866495  MISS:     437567
cpu0_DTLB LOAD      ACCESS:    5879514  HIT:    5599146  MISS:     280368
cpu0_DTLB RFO       ACCESS:     424548  HIT:     267349  MISS:     157199
cpu0_DTLB PREFETCH  ACCESS:          0  HIT:          0  MISS:          0
cpu0_DTLB WRITEBACK ACCESS:          0  HIT:          0  MISS:          0
cpu0_DTLB TRANSLATION ACCESS:          0  HIT:          0  MISS:          0
cpu0_DTLB PREFETCH  REQUESTED:          0  ISSUED:          0  USEFUL:          0  USELESS:          0
cpu0_DTLB AVERAGE MISS LATENCY: 11.3323 cycles
cpu0_ITLB TOTAL     ACCESS:    2383686  HIT:    2383686  MISS:          0
cpu0_ITLB LOAD      ACCESS:    2383686  HIT:    2383686  MISS:          0
cpu0_ITLB RFO       ACCESS:          0  HIT:          0  MISS:          0
cpu0_ITLB PREFETCH  ACCESS:          0  HIT:          0  MISS:          0
cpu0_ITLB WRITEBACK ACCESS:          0  HIT:          0  MISS:          0
cpu0_ITLB TRANSLATION ACCESS:          0  HIT:          0  MISS:          0
cpu0_ITLB PREFETCH  REQUESTED:          0  ISSUED:          0  USEFUL:          0  USELESS:          0
cpu0_ITLB AVERAGE MISS LATENCY: -nan cycles
cpu0_L1I TOTAL     ACCESS:      10708  HIT:      10708  MISS:          0
cpu0_L1I LOAD      ACCESS:      10708  HIT:      10708  MISS:          0
cpu0_L1I RFO       ACCESS:          0  HIT:          0  MISS:          0
cpu0_L1I PREFETCH  ACCESS:          0  HIT:          0  MISS:          0
cpu0_L1I WRITEBACK ACCESS:          0  HIT:          0  MISS:          0
cpu0_L1I TRANSLATION ACCESS:          0  HIT:          0  MISS:          0
cpu0_L1I PREFETCH  REQUESTED:          0  ISSUED:          0  USEFUL:          0  USELESS:          0
cpu0_L1I AVERAGE MISS LATENCY: -nan cycles
cpu0_STLB TOTAL     ACCESS:     437567  HIT:     432137  MISS:       5430
cpu0_STLB LOAD      ACCESS:     280368  HIT:     275681  MISS:       4687
cpu0_STLB RFO       ACCESS:     157199  HIT:     156456  MISS:        743
cpu0_STLB PREFETCH  ACCESS:          0  HIT:          0  MISS:          0
cpu0_STLB WRITEBACK ACCESS:          0  HIT:          0  MISS:          0
cpu0_STLB TRANSLATION ACCESS:          0  HIT:          0  MISS:          0
cpu0_STLB PREFETCH  REQUESTED:          0  ISSUED:          0  USEFUL:          0  USELESS:          0
cpu0_STLB AVERAGE MISS LATENCY: 179.055 cycles
cpu0_L1D TOTAL     ACCESS:    6597386  HIT:    5352920  MISS:    1244466
cpu0_L1D LOAD      ACCESS:    5888375  HIT:    4762338  MISS:    1126037
cpu0_L1D RFO       ACCESS:     629720  HIT:     514965  MISS:     114755
cpu0_L1D PREFETCH  ACCESS:      73887  HIT:      72167  MISS:       1720
cpu0_L1D WRITEBACK ACCESS:          0  HIT:          0  MISS:          0
cpu0_L1D TRANSLATION ACCESS:       5404  HIT:       3450  MISS:       1954
cpu0_L1D PREFETCH  REQUESTED:     180732  ISSUED:      73897  USEFUL:       1323  USELESS:        398
cpu0_L1D AVERAGE MISS LATENCY: 110.16 cycles
cpu0_L2C TOTAL     ACCESS:    2193920  HIT:    1111656  MISS:    1082264
cpu0_L2C LOAD      ACCESS:    1126027  HIT:     336811  MISS:     789216
cpu0_L2C RFO       ACCESS:     114746  HIT:      78662  MISS:      36084
cpu0_L2C PREFETCH  ACCESS:     602608  HIT:     347647  MISS:     254961
cpu0_L2C WRITEBACK ACCESS:     348585  HIT:     347081  MISS:       1504
cpu0_L2C TRANSLATION ACCESS:       1954  HIT:       1455  MISS:        499
cpu0_L2C PREFETCH  REQUESTED:     733378  ISSUED:     697385  USEFUL:     179584  USELESS:      95329
cpu0_L2C AVERAGE MISS LATENCY: 157.642 cycles
LLC TOTAL     ACCESS:    1318541  HIT:     646553  MISS:     671988
LLC LOAD      ACCESS:     768983  HIT:     369916  MISS:     399067
LLC RFO       ACCESS:      36084  HIT:      10361  MISS:      25723
LLC PREFETCH  ACCESS:     277159  HIT:      32116  MISS:     245043
LLC WRITEBACK ACCESS:     235816  HIT:     233898  MISS:       1918
LLC TRANSLATION ACCESS:        499  HIT:        262  MISS:        237
LLC PREFETCH  REQUESTED:          0  ISSUED:          0  USEFUL:          0  USELESS:          0
LLC AVERAGE MISS LATENCY: 231.996 cycles

DRAM Statistics
 CHANNEL 0
 RQ ROW_BUFFER_HIT:      94453  ROW_BUFFER_MISS:     575245
 DBUS AVG_CONGESTED_CYCLE:    3.94112
 WQ ROW_BUFFER_HIT:      34965  ROW_BUFFER_MISS:     171469  FULL:          0


CPU 0 Branch Prediction Accuracy: 91.1986% MPKI: 12.9566 Average ROB Occupancy at Mispredict: 52.297
Branch type MPKI
BRANCH_DIRECT_JUMP: 0
BRANCH_INDIRECT: 0
BRANCH_CONDITIONAL: 12.9566
BRANCH_DIRECT_CALL: 0
BRANCH_INDIRECT_CALL: 0
BRANCH_RETURN: 0

