
*** ChampSim Multicore Out-of-Order Simulator ***

Warmup Instructions: 25000000
Simulation Instructions: 25000000
Number of CPUs: 1
Off-chip DRAM Size: 4 GiB Channels: 1 Width: 64-bit Data Rate: 3200 MT/s

VirtualMemory physical capacity: 8588881920 num_ppages: 2096895
VirtualMemory page size: 4096 log2_page_size: 12

CPU 0 runs /home/sunanda/Course-Files-IITB/CS_683/pa2/tracefiles/619.lbm_s-2677B.champsimtrace.xz
CPU 0 Bimodal branch predictor
Basic BTB sets: 1024 ways: 8 indirect buffer size: 4096 RAS size: 64
Stream Prefetcher Initialized
Stream Prefetcher Degree: 64
Stream Prefetcher Distance: 64
WARNING: The extended signature CACHE::prefetch_line(ip, base_addr, pf_addr, fill_this_level, prefetch_metadata) is deprecated.
WARNING: Use CACHE::prefetch_line(pf_addr, fill_this_level, prefetch_metadata) instead.
Heartbeat CPU 0 instructions: 10000001 cycles: 2592619 heartbeat IPC: 3.8571 cumulative IPC: 3.8571 (Simulation time: 0 hr 0 min 29 sec) 
Heartbeat CPU 0 instructions: 20000001 cycles: 5180833 heartbeat IPC: 3.86367 cumulative IPC: 3.86038 (Simulation time: 0 hr 1 min 4 sec) 

Warmup complete CPU 0 instructions: 25000001 cycles: 6475072 (Simulation time: 0 hr 1 min 21 sec) 

Heartbeat CPU 0 instructions: 30000002 cycles: 29832756 heartbeat IPC: 0.405648 cumulative IPC: 0.214062 (Simulation time: 0 hr 3 min 21 sec) 
Heartbeat CPU 0 instructions: 40000004 cycles: 76517356 heartbeat IPC: 0.214203 cumulative IPC: 0.214156 (Simulation time: 0 hr 6 min 41 sec) 
Heartbeat CPU 0 instructions: 50000001 cycles: 124217445 heartbeat IPC: 0.209643 cumulative IPC: 0.212328 (Simulation time: 0 hr 9 min 6 sec) 
Finished CPU 0 instructions: 25000000 cycles: 117742373 cumulative IPC: 0.212328 (Simulation time: 0 hr 9 min 6 sec) 

ChampSim completed all CPUs

Region of Interest Statistics

CPU 0 cumulative IPC: 0.212328 instructions: 25000000 cycles: 117742373
cpu0_DTLB TOTAL     ACCESS:    4451618  HIT:    4417571  MISS:      34047
cpu0_DTLB LOAD      ACCESS:    1981580  HIT:    1976959  MISS:       4621
cpu0_DTLB RFO       ACCESS:    2470038  HIT:    2440612  MISS:      29426
cpu0_DTLB PREFETCH  ACCESS:          0  HIT:          0  MISS:          0
cpu0_DTLB WRITEBACK ACCESS:          0  HIT:          0  MISS:          0
cpu0_DTLB TRANSLATION ACCESS:          0  HIT:          0  MISS:          0
cpu0_DTLB PREFETCH  REQUESTED:          0  ISSUED:          0  USEFUL:          0  USELESS:          0
cpu0_DTLB AVERAGE MISS LATENCY: 511.066 cycles
cpu0_ITLB TOTAL     ACCESS:     472339  HIT:     472339  MISS:          0
cpu0_ITLB LOAD      ACCESS:     472339  HIT:     472339  MISS:          0
cpu0_ITLB RFO       ACCESS:          0  HIT:          0  MISS:          0
cpu0_ITLB PREFETCH  ACCESS:          0  HIT:          0  MISS:          0
cpu0_ITLB WRITEBACK ACCESS:          0  HIT:          0  MISS:          0
cpu0_ITLB TRANSLATION ACCESS:          0  HIT:          0  MISS:          0
cpu0_ITLB PREFETCH  REQUESTED:          0  ISSUED:          0  USEFUL:          0  USELESS:          0
cpu0_ITLB AVERAGE MISS LATENCY: -nan cycles
cpu0_L1I TOTAL     ACCESS:     552132  HIT:     552132  MISS:          0
cpu0_L1I LOAD      ACCESS:     552132  HIT:     552132  MISS:          0
cpu0_L1I RFO       ACCESS:          0  HIT:          0  MISS:          0
cpu0_L1I PREFETCH  ACCESS:          0  HIT:          0  MISS:          0
cpu0_L1I WRITEBACK ACCESS:          0  HIT:          0  MISS:          0
cpu0_L1I TRANSLATION ACCESS:          0  HIT:          0  MISS:          0
cpu0_L1I PREFETCH  REQUESTED:          0  ISSUED:          0  USEFUL:          0  USELESS:          0
cpu0_L1I AVERAGE MISS LATENCY: -nan cycles
cpu0_STLB TOTAL     ACCESS:      34047  HIT:      15571  MISS:      18476
cpu0_STLB LOAD      ACCESS:       4621  HIT:          0  MISS:       4621
cpu0_STLB RFO       ACCESS:      29426  HIT:      15571  MISS:      13855
cpu0_STLB PREFETCH  ACCESS:          0  HIT:          0  MISS:          0
cpu0_STLB WRITEBACK ACCESS:          0  HIT:          0  MISS:          0
cpu0_STLB TRANSLATION ACCESS:          0  HIT:          0  MISS:          0
cpu0_STLB PREFETCH  REQUESTED:          0  ISSUED:          0  USEFUL:          0  USELESS:          0
cpu0_STLB AVERAGE MISS LATENCY: 925.053 cycles
cpu0_L1D TOTAL     ACCESS:    5917111  HIT:    3966540  MISS:    1950571
cpu0_L1D LOAD      ACCESS:    1405259  HIT:    1109710  MISS:     295549
cpu0_L1D RFO       ACCESS:    4494323  HIT:    2839310  MISS:    1655013
cpu0_L1D PREFETCH  ACCESS:          0  HIT:          0  MISS:          0
cpu0_L1D WRITEBACK ACCESS:          0  HIT:          0  MISS:          0
cpu0_L1D TRANSLATION ACCESS:      17529  HIT:      17520  MISS:          9
cpu0_L1D PREFETCH  REQUESTED:          0  ISSUED:          0  USEFUL:          0  USELESS:          0
cpu0_L1D AVERAGE MISS LATENCY: 755.02 cycles
cpu0_L2C TOTAL     ACCESS:    3605611  HIT:    2395808  MISS:    1209803
cpu0_L2C LOAD      ACCESS:     295549  HIT:          2  MISS:     295547
cpu0_L2C RFO       ACCESS:    1655013  HIT:     740823  MISS:     914190
cpu0_L2C PREFETCH  ACCESS:          0  HIT:          0  MISS:          0
cpu0_L2C WRITEBACK ACCESS:    1655040  HIT:    1654983  MISS:         57
cpu0_L2C TRANSLATION ACCESS:          9  HIT:          0  MISS:          9
cpu0_L2C PREFETCH  REQUESTED:        554  ISSUED:        554  USEFUL:          0  USELESS:          0
cpu0_L2C AVERAGE MISS LATENCY: 1199.5 cycles
LLC TOTAL     ACCESS:    2124067  HIT:     941889  MISS:    1182178
LLC LOAD      ACCESS:     295547  HIT:          0  MISS:     295547
LLC RFO       ACCESS:     914135  HIT:      27556  MISS:     886579
LLC PREFETCH  ACCESS:          0  HIT:          0  MISS:          0
LLC WRITEBACK ACCESS:     914376  HIT:     914333  MISS:         43
LLC TRANSLATION ACCESS:          9  HIT:          0  MISS:          9
LLC PREFETCH  REQUESTED:          0  ISSUED:          0  USEFUL:          0  USELESS:          0
LLC AVERAGE MISS LATENCY: 1206.04 cycles

DRAM Statistics
 CHANNEL 0
 RQ ROW_BUFFER_HIT:      36283  ROW_BUFFER_MISS:    1145852
 DBUS AVG_CONGESTED_CYCLE:    4.00297
 WQ ROW_BUFFER_HIT:      17965  ROW_BUFFER_MISS:     868918  FULL:          0


CPU 0 Branch Prediction Accuracy: 95.9842% MPKI: 0.71772 Average ROB Occupancy at Mispredict: 259.31
Branch type MPKI
BRANCH_DIRECT_JUMP: 0
BRANCH_INDIRECT: 0
BRANCH_CONDITIONAL: 0.71772
BRANCH_DIRECT_CALL: 0
BRANCH_INDIRECT_CALL: 0
BRANCH_RETURN: 0

