
*** ChampSim Multicore Out-of-Order Simulator ***

Warmup Instructions: 25000000
Simulation Instructions: 25000000
Number of CPUs: 1
Off-chip DRAM Size: 4 GiB Channels: 1 Width: 64-bit Data Rate: 3200 MT/s

VirtualMemory physical capacity: 8588881920 num_ppages: 2096895
VirtualMemory page size: 4096 log2_page_size: 12

CPU 0 runs traces/602.gcc_s-1850B.champsimtrace.xz
CPU 0 Bimodal branch predictor
Basic BTB sets: 1024 ways: 8 indirect buffer size: 4096 RAS size: 64
Stream Prefetcher Initialized
cpu0_L2C IP-based stride prefetcher
WARNING: The extended signature CACHE::prefetch_line(ip, base_addr, pf_addr, fill_this_level, prefetch_metadata) is deprecated.
WARNING: Use CACHE::prefetch_line(pf_addr, fill_this_level, prefetch_metadata) instead.
Heartbeat CPU 0 instructions: 10000000 cycles: 2500075 heartbeat IPC: 3.99988 cumulative IPC: 3.99988 (Simulation time: 0 hr 0 min 27 sec) 
Heartbeat CPU 0 instructions: 20000000 cycles: 5000075 heartbeat IPC: 4 cumulative IPC: 3.99994 (Simulation time: 0 hr 0 min 56 sec) 

Warmup complete CPU 0 instructions: 25000004 cycles: 6250076 (Simulation time: 0 hr 1 min 10 sec) 

Heartbeat CPU 0 instructions: 30000000 cycles: 14981539 heartbeat IPC: 1.00186 cumulative IPC: 0.572641 (Simulation time: 0 hr 1 min 29 sec) 
Heartbeat CPU 0 instructions: 40000002 cycles: 32487694 heartbeat IPC: 0.571228 cumulative IPC: 0.571698 (Simulation time: 0 hr 2 min 6 sec) 
Heartbeat CPU 0 instructions: 50000003 cycles: 50009713 heartbeat IPC: 0.570711 cumulative IPC: 0.571303 (Simulation time: 0 hr 2 min 42 sec) 
Finished CPU 0 instructions: 25000004 cycles: 43759638 cumulative IPC: 0.571303 (Simulation time: 0 hr 2 min 42 sec) 

ChampSim completed all CPUs

Region of Interest Statistics

CPU 0 cumulative IPC: 0.571303 instructions: 25000004 cycles: 43759638
cpu0_DTLB TOTAL     ACCESS:    4749053  HIT:    4740927  MISS:       8126
cpu0_DTLB LOAD      ACCESS:    3939463  HIT:    3931340  MISS:       8123
cpu0_DTLB RFO       ACCESS:     809590  HIT:     809587  MISS:          3
cpu0_DTLB PREFETCH  ACCESS:          0  HIT:          0  MISS:          0
cpu0_DTLB WRITEBACK ACCESS:          0  HIT:          0  MISS:          0
cpu0_DTLB TRANSLATION ACCESS:          0  HIT:          0  MISS:          0
cpu0_DTLB PREFETCH  REQUESTED:          0  ISSUED:          0  USEFUL:          0  USELESS:          0
cpu0_DTLB AVERAGE MISS LATENCY: 208.09 cycles
cpu0_ITLB TOTAL     ACCESS:    2857034  HIT:    2857034  MISS:          0
cpu0_ITLB LOAD      ACCESS:    2857034  HIT:    2857034  MISS:          0
cpu0_ITLB RFO       ACCESS:          0  HIT:          0  MISS:          0
cpu0_ITLB PREFETCH  ACCESS:          0  HIT:          0  MISS:          0
cpu0_ITLB WRITEBACK ACCESS:          0  HIT:          0  MISS:          0
cpu0_ITLB TRANSLATION ACCESS:          0  HIT:          0  MISS:          0
cpu0_ITLB PREFETCH  REQUESTED:          0  ISSUED:          0  USEFUL:          0  USELESS:          0
cpu0_ITLB AVERAGE MISS LATENCY: -nan cycles
cpu0_STLB TOTAL     ACCESS:       8126  HIT:        392  MISS:       7734
cpu0_STLB LOAD      ACCESS:       8123  HIT:        392  MISS:       7731
cpu0_STLB RFO       ACCESS:          3  HIT:          0  MISS:          3
cpu0_STLB PREFETCH  ACCESS:          0  HIT:          0  MISS:          0
cpu0_STLB WRITEBACK ACCESS:          0  HIT:          0  MISS:          0
cpu0_STLB TRANSLATION ACCESS:          0  HIT:          0  MISS:          0
cpu0_STLB PREFETCH  REQUESTED:          0  ISSUED:          0  USEFUL:          0  USELESS:          0
cpu0_STLB AVERAGE MISS LATENCY: 209.181 cycles
cpu0_L1D TOTAL     ACCESS:    5561609  HIT:    4959455  MISS:     602154
cpu0_L1D LOAD      ACCESS:    3385093  HIT:    2783986  MISS:     601107
cpu0_L1D RFO       ACCESS:    2157622  HIT:    2157450  MISS:        172
cpu0_L1D PREFETCH  ACCESS:      11160  HIT:      11030  MISS:        130
cpu0_L1D WRITEBACK ACCESS:          0  HIT:          0  MISS:          0
cpu0_L1D TRANSLATION ACCESS:       7734  HIT:       6989  MISS:        745
cpu0_L1D PREFETCH  REQUESTED:      30903  ISSUED:      11171  USEFUL:         49  USELESS:         81
cpu0_L1D AVERAGE MISS LATENCY: 28.8521 cycles
cpu0_L2C TOTAL     ACCESS:    2237943  HIT:    1788997  MISS:     448946
cpu0_L2C LOAD      ACCESS:     601107  HIT:     530898  MISS:      70209
cpu0_L2C RFO       ACCESS:        172  HIT:         59  MISS:        113
cpu0_L2C PREFETCH  ACCESS:    1634354  HIT:    1255864  MISS:     378490
cpu0_L2C WRITEBACK ACCESS:       1565  HIT:       1565  MISS:          0
cpu0_L2C TRANSLATION ACCESS:        745  HIT:        611  MISS:        134
cpu0_L2C PREFETCH  REQUESTED:    2042034  ISSUED:    2037529  USEFUL:     378764  USELESS:       2150
cpu0_L2C AVERAGE MISS LATENCY: 121.893 cycles
LLC TOTAL     ACCESS:     449565  HIT:       1406  MISS:     448159
LLC LOAD      ACCESS:      67685  HIT:        388  MISS:      67297
LLC RFO       ACCESS:        110  HIT:          3  MISS:        107
LLC PREFETCH  ACCESS:     381017  HIT:        331  MISS:     380686
LLC WRITEBACK ACCESS:        619  HIT:        619  MISS:          0
LLC TRANSLATION ACCESS:        134  HIT:         65  MISS:         69
LLC PREFETCH  REQUESTED:          0  ISSUED:          0  USEFUL:          0  USELESS:          0
LLC AVERAGE MISS LATENCY: 101.707 cycles

DRAM Statistics
 CHANNEL 0
 RQ ROW_BUFFER_HIT:     367448  ROW_BUFFER_MISS:      80711
 DBUS AVG_CONGESTED_CYCLE:    3.96457
 WQ ROW_BUFFER_HIT:        175  ROW_BUFFER_MISS:        446  FULL:          0


CPU 0 Branch Prediction Accuracy: 92.3646% MPKI: 19.576 Average ROB Occupancy at Mispredict: 33.4549
Branch type MPKI
BRANCH_DIRECT_JUMP: 0
BRANCH_INDIRECT: 0
BRANCH_CONDITIONAL: 19.576
BRANCH_DIRECT_CALL: 0
BRANCH_INDIRECT_CALL: 0
BRANCH_RETURN: 0

