
*** ChampSim Multicore Out-of-Order Simulator ***

Warmup Instructions: 25000000
Simulation Instructions: 25000000
Number of CPUs: 1
Off-chip DRAM Size: 4 GiB Channels: 1 Width: 64-bit Data Rate: 3200 MT/s

VirtualMemory physical capacity: 8588881920 num_ppages: 2096895
VirtualMemory page size: 4096 log2_page_size: 12

CPU 0 runs traces/603.bwaves_s-1740B.champsimtrace.xz
CPU 0 Bimodal branch predictor
Basic BTB sets: 1024 ways: 8 indirect buffer size: 4096 RAS size: 64
Stream Prefetcher Initialized
cpu0_L2C IP-based stride prefetcher
WARNING: The extended signature CACHE::prefetch_line(ip, base_addr, pf_addr, fill_this_level, prefetch_metadata) is deprecated.
WARNING: Use CACHE::prefetch_line(pf_addr, fill_this_level, prefetch_metadata) instead.
Heartbeat CPU 0 instructions: 10000003 cycles: 3642289 heartbeat IPC: 2.74553 cumulative IPC: 2.74553 (Simulation time: 0 hr 0 min 47 sec) 
Heartbeat CPU 0 instructions: 20000001 cycles: 7284431 heartbeat IPC: 2.74564 cumulative IPC: 2.74558 (Simulation time: 0 hr 1 min 34 sec) 

Warmup complete CPU 0 instructions: 25000001 cycles: 9105488 (Simulation time: 0 hr 1 min 58 sec) 

Heartbeat CPU 0 instructions: 30000003 cycles: 15173811 heartbeat IPC: 1.26753 cumulative IPC: 0.823951 (Simulation time: 0 hr 2 min 42 sec) 
Heartbeat CPU 0 instructions: 40000001 cycles: 27316583 heartbeat IPC: 0.823535 cumulative IPC: 0.823674 (Simulation time: 0 hr 4 min 12 sec) 
Heartbeat CPU 0 instructions: 50000002 cycles: 39460903 heartbeat IPC: 0.82343 cumulative IPC: 0.823576 (Simulation time: 0 hr 5 min 41 sec) 
Finished CPU 0 instructions: 25000001 cycles: 30355415 cumulative IPC: 0.823576 (Simulation time: 0 hr 5 min 41 sec) 

ChampSim completed all CPUs

Region of Interest Statistics

CPU 0 cumulative IPC: 0.823576 instructions: 25000001 cycles: 30355415
cpu0_DTLB TOTAL     ACCESS:    8025482  HIT:    7997003  MISS:      28479
cpu0_DTLB LOAD      ACCESS:    7456126  HIT:    7432508  MISS:      23618
cpu0_DTLB RFO       ACCESS:     569356  HIT:     564495  MISS:       4861
cpu0_DTLB PREFETCH  ACCESS:          0  HIT:          0  MISS:          0
cpu0_DTLB WRITEBACK ACCESS:          0  HIT:          0  MISS:          0
cpu0_DTLB TRANSLATION ACCESS:          0  HIT:          0  MISS:          0
cpu0_DTLB PREFETCH  REQUESTED:          0  ISSUED:          0  USEFUL:          0  USELESS:          0
cpu0_DTLB AVERAGE MISS LATENCY: 74.9515 cycles
cpu0_ITLB TOTAL     ACCESS:    2221439  HIT:    2221439  MISS:          0
cpu0_ITLB LOAD      ACCESS:    2221439  HIT:    2221439  MISS:          0
cpu0_ITLB RFO       ACCESS:          0  HIT:          0  MISS:          0
cpu0_ITLB PREFETCH  ACCESS:          0  HIT:          0  MISS:          0
cpu0_ITLB WRITEBACK ACCESS:          0  HIT:          0  MISS:          0
cpu0_ITLB TRANSLATION ACCESS:          0  HIT:          0  MISS:          0
cpu0_ITLB PREFETCH  REQUESTED:          0  ISSUED:          0  USEFUL:          0  USELESS:          0
cpu0_ITLB AVERAGE MISS LATENCY: -nan cycles
cpu0_STLB TOTAL     ACCESS:      28479  HIT:      21055  MISS:       7424
cpu0_STLB LOAD      ACCESS:      23618  HIT:      16384  MISS:       7234
cpu0_STLB RFO       ACCESS:       4861  HIT:       4671  MISS:        190
cpu0_STLB PREFETCH  ACCESS:          0  HIT:          0  MISS:          0
cpu0_STLB WRITEBACK ACCESS:          0  HIT:          0  MISS:          0
cpu0_STLB TRANSLATION ACCESS:          0  HIT:          0  MISS:          0
cpu0_STLB PREFETCH  REQUESTED:          0  ISSUED:          0  USEFUL:          0  USELESS:          0
cpu0_STLB AVERAGE MISS LATENCY: 252.277 cycles
cpu0_L1D TOTAL     ACCESS:    8345182  HIT:    7841970  MISS:     503212
cpu0_L1D LOAD      ACCESS:    6903736  HIT:    6416103  MISS:     487633
cpu0_L1D RFO       ACCESS:    1365246  HIT:    1353065  MISS:      12181
cpu0_L1D PREFETCH  ACCESS:      68776  HIT:      65918  MISS:       2858
cpu0_L1D WRITEBACK ACCESS:          0  HIT:          0  MISS:          0
cpu0_L1D TRANSLATION ACCESS:       7424  HIT:       6884  MISS:        540
cpu0_L1D PREFETCH  REQUESTED:     187950  ISSUED:      68892  USEFUL:       2565  USELESS:        291
cpu0_L1D AVERAGE MISS LATENCY: 196.09 cycles
cpu0_L2C TOTAL     ACCESS:    1567085  HIT:    1091796  MISS:     475289
cpu0_L2C LOAD      ACCESS:     487633  HIT:     314967  MISS:     172666
cpu0_L2C RFO       ACCESS:      12181  HIT:          0  MISS:      12181
cpu0_L2C PREFETCH  ACCESS:    1054365  HIT:     763955  MISS:     290410
cpu0_L2C WRITEBACK ACCESS:      12366  HIT:      12366  MISS:          0
cpu0_L2C TRANSLATION ACCESS:        540  HIT:        508  MISS:         32
cpu0_L2C PREFETCH  REQUESTED:    1540973  ISSUED:    1386697  USEFUL:     391352  USELESS:          0
cpu0_L2C AVERAGE MISS LATENCY: 499.16 cycles
LLC TOTAL     ACCESS:     609153  HIT:     134018  MISS:     475135
LLC LOAD      ACCESS:      71653  HIT:      21146  MISS:      50507
LLC RFO       ACCESS:      12181  HIT:          0  MISS:      12181
LLC PREFETCH  ACCESS:     513074  HIT:     100650  MISS:     412424
LLC WRITEBACK ACCESS:      12213  HIT:      12211  MISS:          2
LLC TRANSLATION ACCESS:         32  HIT:         11  MISS:         21
LLC PREFETCH  REQUESTED:          0  ISSUED:          0  USEFUL:          0  USELESS:          0
LLC AVERAGE MISS LATENCY: 1019.76 cycles

DRAM Statistics
 CHANNEL 0
 RQ ROW_BUFFER_HIT:      18641  ROW_BUFFER_MISS:     456492
 DBUS AVG_CONGESTED_CYCLE:    3.99487
 WQ ROW_BUFFER_HIT:       4299  ROW_BUFFER_MISS:       8121  FULL:          0


CPU 0 Branch Prediction Accuracy: 62.4635% MPKI: 9.3696 Average ROB Occupancy at Mispredict: 291.14
Branch type MPKI
BRANCH_DIRECT_JUMP: 0
BRANCH_INDIRECT: 0
BRANCH_CONDITIONAL: 9.3696
BRANCH_DIRECT_CALL: 0
BRANCH_INDIRECT_CALL: 0
BRANCH_RETURN: 0

