
*** ChampSim Multicore Out-of-Order Simulator ***

Warmup Instructions: 25000000
Simulation Instructions: 25000000
Number of CPUs: 1
Off-chip DRAM Size: 4 GiB Channels: 1 Width: 64-bit Data Rate: 3200 MT/s

VirtualMemory physical capacity: 8588881920 num_ppages: 2096895
VirtualMemory page size: 4096 log2_page_size: 12

CPU 0 runs traces/bc-0.trace.gz
CPU 0 Bimodal branch predictor
Basic BTB sets: 1024 ways: 8 indirect buffer size: 4096 RAS size: 64
Stream Prefetcher Initialized
cpu0_L2C IP-based stride prefetcher
WARNING: The extended signature CACHE::prefetch_line(ip, base_addr, pf_addr, fill_this_level, prefetch_metadata) is deprecated.
WARNING: Use CACHE::prefetch_line(pf_addr, fill_this_level, prefetch_metadata) instead.
Heartbeat CPU 0 instructions: 10000002 cycles: 3203425 heartbeat IPC: 3.12166 cumulative IPC: 3.12166 (Simulation time: 0 hr 0 min 46 sec) 
Heartbeat CPU 0 instructions: 20000000 cycles: 5712247 heartbeat IPC: 3.98593 cumulative IPC: 3.50125 (Simulation time: 0 hr 1 min 18 sec) 

Warmup complete CPU 0 instructions: 25000004 cycles: 6963678 (Simulation time: 0 hr 1 min 34 sec) 

Heartbeat CPU 0 instructions: 30000001 cycles: 40563688 heartbeat IPC: 0.286932 cumulative IPC: 0.148809 (Simulation time: 0 hr 2 min 19 sec) 
Heartbeat CPU 0 instructions: 40000002 cycles: 108880709 heartbeat IPC: 0.146376 cumulative IPC: 0.147179 (Simulation time: 0 hr 3 min 53 sec) 
Heartbeat CPU 0 instructions: 50000002 cycles: 177032430 heartbeat IPC: 0.146731 cumulative IPC: 0.146999 (Simulation time: 0 hr 5 min 27 sec) 
Finished CPU 0 instructions: 25000000 cycles: 170068753 cumulative IPC: 0.146999 (Simulation time: 0 hr 5 min 27 sec) 

ChampSim completed all CPUs

Region of Interest Statistics

CPU 0 cumulative IPC: 0.146999 instructions: 25000000 cycles: 170068753
cpu0_DTLB TOTAL     ACCESS:    5773320  HIT:    5039539  MISS:     733781
cpu0_DTLB LOAD      ACCESS:    4545934  HIT:    4068750  MISS:     477184
cpu0_DTLB RFO       ACCESS:    1227386  HIT:     970789  MISS:     256597
cpu0_DTLB PREFETCH  ACCESS:          0  HIT:          0  MISS:          0
cpu0_DTLB WRITEBACK ACCESS:          0  HIT:          0  MISS:          0
cpu0_DTLB TRANSLATION ACCESS:          0  HIT:          0  MISS:          0
cpu0_DTLB PREFETCH  REQUESTED:          0  ISSUED:          0  USEFUL:          0  USELESS:          0
cpu0_DTLB AVERAGE MISS LATENCY: 13.8543 cycles
cpu0_ITLB TOTAL     ACCESS:    3107161  HIT:    3107161  MISS:          0
cpu0_ITLB LOAD      ACCESS:    3107161  HIT:    3107161  MISS:          0
cpu0_ITLB RFO       ACCESS:          0  HIT:          0  MISS:          0
cpu0_ITLB PREFETCH  ACCESS:          0  HIT:          0  MISS:          0
cpu0_ITLB WRITEBACK ACCESS:          0  HIT:          0  MISS:          0
cpu0_ITLB TRANSLATION ACCESS:          0  HIT:          0  MISS:          0
cpu0_ITLB PREFETCH  REQUESTED:          0  ISSUED:          0  USEFUL:          0  USELESS:          0
cpu0_ITLB AVERAGE MISS LATENCY: -nan cycles
cpu0_L1I TOTAL     ACCESS:         86  HIT:         86  MISS:          0
cpu0_L1I LOAD      ACCESS:         86  HIT:         86  MISS:          0
cpu0_L1I RFO       ACCESS:          0  HIT:          0  MISS:          0
cpu0_L1I PREFETCH  ACCESS:          0  HIT:          0  MISS:          0
cpu0_L1I WRITEBACK ACCESS:          0  HIT:          0  MISS:          0
cpu0_L1I TRANSLATION ACCESS:          0  HIT:          0  MISS:          0
cpu0_L1I PREFETCH  REQUESTED:          0  ISSUED:          0  USEFUL:          0  USELESS:          0
cpu0_L1I AVERAGE MISS LATENCY: -nan cycles
cpu0_STLB TOTAL     ACCESS:     733781  HIT:     397123  MISS:     336658
cpu0_STLB LOAD      ACCESS:     477184  HIT:     309934  MISS:     167250
cpu0_STLB RFO       ACCESS:     256597  HIT:      87189  MISS:     169408
cpu0_STLB PREFETCH  ACCESS:          0  HIT:          0  MISS:          0
cpu0_STLB WRITEBACK ACCESS:          0  HIT:          0  MISS:          0
cpu0_STLB TRANSLATION ACCESS:          0  HIT:          0  MISS:          0
cpu0_STLB PREFETCH  REQUESTED:          0  ISSUED:          0  USEFUL:          0  USELESS:          0
cpu0_STLB AVERAGE MISS LATENCY: 10.4013 cycles
cpu0_L1D TOTAL     ACCESS:    6889313  HIT:    4801550  MISS:    2087763
cpu0_L1D LOAD      ACCESS:    5220872  HIT:    3146579  MISS:    2074293
cpu0_L1D RFO       ACCESS:    1299059  HIT:    1288027  MISS:      11032
cpu0_L1D PREFETCH  ACCESS:      41826  HIT:      40782  MISS:       1044
cpu0_L1D WRITEBACK ACCESS:          0  HIT:          0  MISS:          0
cpu0_L1D TRANSLATION ACCESS:     327556  HIT:     326162  MISS:       1394
cpu0_L1D PREFETCH  REQUESTED:     103152  ISSUED:      41827  USEFUL:        581  USELESS:        463
cpu0_L1D AVERAGE MISS LATENCY: 164.378 cycles
cpu0_L2C TOTAL     ACCESS:    3973327  HIT:    1794430  MISS:    2178897
cpu0_L2C LOAD      ACCESS:    2074293  HIT:     355295  MISS:    1718998
cpu0_L2C RFO       ACCESS:      11032  HIT:        102  MISS:      10930
cpu0_L2C PREFETCH  ACCESS:    1237788  HIT:     788892  MISS:     448896
cpu0_L2C WRITEBACK ACCESS:     648820  HIT:     648797  MISS:         23
cpu0_L2C TRANSLATION ACCESS:       1394  HIT:       1344  MISS:         50
cpu0_L2C PREFETCH  REQUESTED:    1337256  ISSUED:    1317940  USEFUL:     200116  USELESS:     268259
cpu0_L2C AVERAGE MISS LATENCY: 206.998 cycles
LLC TOTAL     ACCESS:    2818474  HIT:    1286730  MISS:    1531744
LLC LOAD      ACCESS:    1700063  HIT:     585958  MISS:    1114105
LLC RFO       ACCESS:      10930  HIT:        490  MISS:      10440
LLC PREFETCH  ACCESS:     472210  HIT:      65120  MISS:     407090
LLC WRITEBACK ACCESS:     635221  HIT:     635151  MISS:         70
LLC TRANSLATION ACCESS:         50  HIT:         11  MISS:         39
LLC PREFETCH  REQUESTED:          0  ISSUED:          0  USEFUL:          0  USELESS:          0
LLC AVERAGE MISS LATENCY: 272.657 cycles

DRAM Statistics
 CHANNEL 0
 RQ ROW_BUFFER_HIT:     222810  ROW_BUFFER_MISS:    1308124
 DBUS AVG_CONGESTED_CYCLE:    3.95233
 WQ ROW_BUFFER_HIT:       1507  ROW_BUFFER_MISS:     552059  FULL:          0


CPU 0 Branch Prediction Accuracy: 81.1279% MPKI: 35.6282 Average ROB Occupancy at Mispredict: 25.5091
Branch type MPKI
BRANCH_DIRECT_JUMP: 0
BRANCH_INDIRECT: 0
BRANCH_CONDITIONAL: 35.6282
BRANCH_DIRECT_CALL: 0
BRANCH_INDIRECT_CALL: 0
BRANCH_RETURN: 0

