
*** ChampSim Multicore Out-of-Order Simulator ***

Warmup Instructions: 25000000
Simulation Instructions: 25000000
Number of CPUs: 1
Off-chip DRAM Size: 4 GiB Channels: 1 Width: 64-bit Data Rate: 3200 MT/s

VirtualMemory physical capacity: 8588881920 num_ppages: 2096895
VirtualMemory page size: 4096 log2_page_size: 12

CPU 0 runs traces/bc-0.trace.gz
CPU 0 Bimodal branch predictor
Basic BTB sets: 1024 ways: 8 indirect buffer size: 4096 RAS size: 64
Stream Prefetcher Initialized
cpu0_L2C IP-based stride prefetcher
WARNING: The extended signature CACHE::prefetch_line(ip, base_addr, pf_addr, fill_this_level, prefetch_metadata) is deprecated.
WARNING: Use CACHE::prefetch_line(pf_addr, fill_this_level, prefetch_metadata) instead.
Heartbeat CPU 0 instructions: 10000002 cycles: 3203423 heartbeat IPC: 3.12166 cumulative IPC: 3.12166 (Simulation time: 0 hr 0 min 43 sec) 
Heartbeat CPU 0 instructions: 20000002 cycles: 5712248 heartbeat IPC: 3.98593 cumulative IPC: 3.50125 (Simulation time: 0 hr 1 min 15 sec) 

Warmup complete CPU 0 instructions: 25000001 cycles: 6963678 (Simulation time: 0 hr 1 min 31 sec) 

Heartbeat CPU 0 instructions: 30000001 cycles: 40691144 heartbeat IPC: 0.285887 cumulative IPC: 0.148247 (Simulation time: 0 hr 2 min 16 sec) 
Heartbeat CPU 0 instructions: 40000002 cycles: 108874486 heartbeat IPC: 0.146663 cumulative IPC: 0.147188 (Simulation time: 0 hr 3 min 41 sec) 
Heartbeat CPU 0 instructions: 50000002 cycles: 176930494 heartbeat IPC: 0.146938 cumulative IPC: 0.147088 (Simulation time: 0 hr 5 min 6 sec) 
Finished CPU 0 instructions: 25000001 cycles: 169966816 cumulative IPC: 0.147088 (Simulation time: 0 hr 5 min 6 sec) 

ChampSim completed all CPUs

Region of Interest Statistics

CPU 0 cumulative IPC: 0.147088 instructions: 25000001 cycles: 169966816
cpu0_DTLB TOTAL     ACCESS:    5772003  HIT:    5038221  MISS:     733782
cpu0_DTLB LOAD      ACCESS:    4544258  HIT:    4067077  MISS:     477181
cpu0_DTLB RFO       ACCESS:    1227745  HIT:     971144  MISS:     256601
cpu0_DTLB PREFETCH  ACCESS:          0  HIT:          0  MISS:          0
cpu0_DTLB WRITEBACK ACCESS:          0  HIT:          0  MISS:          0
cpu0_DTLB TRANSLATION ACCESS:          0  HIT:          0  MISS:          0
cpu0_DTLB PREFETCH  REQUESTED:          0  ISSUED:          0  USEFUL:          0  USELESS:          0
cpu0_DTLB AVERAGE MISS LATENCY: 13.8325 cycles
cpu0_ITLB TOTAL     ACCESS:    3107161  HIT:    3107161  MISS:          0
cpu0_ITLB LOAD      ACCESS:    3107161  HIT:    3107161  MISS:          0
cpu0_ITLB RFO       ACCESS:          0  HIT:          0  MISS:          0
cpu0_ITLB PREFETCH  ACCESS:          0  HIT:          0  MISS:          0
cpu0_ITLB WRITEBACK ACCESS:          0  HIT:          0  MISS:          0
cpu0_ITLB TRANSLATION ACCESS:          0  HIT:          0  MISS:          0
cpu0_ITLB PREFETCH  REQUESTED:          0  ISSUED:          0  USEFUL:          0  USELESS:          0
cpu0_ITLB AVERAGE MISS LATENCY: -nan cycles
cpu0_L1I TOTAL     ACCESS:         86  HIT:         86  MISS:          0
cpu0_L1I LOAD      ACCESS:         86  HIT:         86  MISS:          0
cpu0_L1I RFO       ACCESS:          0  HIT:          0  MISS:          0
cpu0_L1I PREFETCH  ACCESS:          0  HIT:          0  MISS:          0
cpu0_L1I WRITEBACK ACCESS:          0  HIT:          0  MISS:          0
cpu0_L1I TRANSLATION ACCESS:          0  HIT:          0  MISS:          0
cpu0_L1I PREFETCH  REQUESTED:          0  ISSUED:          0  USEFUL:          0  USELESS:          0
cpu0_L1I AVERAGE MISS LATENCY: -nan cycles
cpu0_STLB TOTAL     ACCESS:     733782  HIT:     397124  MISS:     336658
cpu0_STLB LOAD      ACCESS:     477181  HIT:     309937  MISS:     167244
cpu0_STLB RFO       ACCESS:     256601  HIT:      87187  MISS:     169414
cpu0_STLB PREFETCH  ACCESS:          0  HIT:          0  MISS:          0
cpu0_STLB WRITEBACK ACCESS:          0  HIT:          0  MISS:          0
cpu0_STLB TRANSLATION ACCESS:          0  HIT:          0  MISS:          0
cpu0_STLB PREFETCH  REQUESTED:          0  ISSUED:          0  USEFUL:          0  USELESS:          0
cpu0_STLB AVERAGE MISS LATENCY: 10.3539 cycles
cpu0_L1D TOTAL     ACCESS:    6883375  HIT:    4795608  MISS:    2087767
cpu0_L1D LOAD      ACCESS:    5215103  HIT:    3140808  MISS:    2074295
cpu0_L1D RFO       ACCESS:    1298926  HIT:    1287894  MISS:      11032
cpu0_L1D PREFETCH  ACCESS:      41786  HIT:      40740  MISS:       1046
cpu0_L1D WRITEBACK ACCESS:          0  HIT:          0  MISS:          0
cpu0_L1D TRANSLATION ACCESS:     327560  HIT:     326166  MISS:       1394
cpu0_L1D PREFETCH  REQUESTED:     103029  ISSUED:      41788  USEFUL:        582  USELESS:        464
cpu0_L1D AVERAGE MISS LATENCY: 166.188 cycles
cpu0_L2C TOTAL     ACCESS:    4516665  HIT:    2252600  MISS:    2264065
cpu0_L2C LOAD      ACCESS:    2074295  HIT:     367292  MISS:    1707003
cpu0_L2C RFO       ACCESS:      11032  HIT:         92  MISS:      10940
cpu0_L2C PREFETCH  ACCESS:    1781123  HIT:    1235079  MISS:     546044
cpu0_L2C WRITEBACK ACCESS:     648821  HIT:     648794  MISS:         27
cpu0_L2C TRANSLATION ACCESS:       1394  HIT:       1343  MISS:         51
cpu0_L2C PREFETCH  REQUESTED:    1927828  ISSUED:    1908426  USEFUL:     238040  USELESS:     331965
cpu0_L2C AVERAGE MISS LATENCY: 222.915 cycles
LLC TOTAL     ACCESS:    2917518  HIT:    1294767  MISS:    1622751
LLC LOAD      ACCESS:    1683739  HIT:     575399  MISS:    1108340
LLC RFO       ACCESS:      10940  HIT:        482  MISS:      10458
LLC PREFETCH  ACCESS:     587207  HIT:      83416  MISS:     503791
LLC WRITEBACK ACCESS:     635581  HIT:     635459  MISS:        122
LLC TRANSLATION ACCESS:         51  HIT:         11  MISS:         40
LLC PREFETCH  REQUESTED:          0  ISSUED:          0  USEFUL:          0  USELESS:          0
LLC AVERAGE MISS LATENCY: 298.553 cycles

DRAM Statistics
 CHANNEL 0
 RQ ROW_BUFFER_HIT:     316438  ROW_BUFFER_MISS:    1305444
 DBUS AVG_CONGESTED_CYCLE:    3.95173
 WQ ROW_BUFFER_HIT:       1872  ROW_BUFFER_MISS:     555522  FULL:          0


CPU 0 Branch Prediction Accuracy: 81.1279% MPKI: 35.6282 Average ROB Occupancy at Mispredict: 26.802
Branch type MPKI
BRANCH_DIRECT_JUMP: 0
BRANCH_INDIRECT: 0
BRANCH_CONDITIONAL: 35.6282
BRANCH_DIRECT_CALL: 0
BRANCH_INDIRECT_CALL: 0
BRANCH_RETURN: 0

