
*** ChampSim Multicore Out-of-Order Simulator ***

Warmup Instructions: 25000000
Simulation Instructions: 25000000
Number of CPUs: 1
Off-chip DRAM Size: 4 GiB Channels: 1 Width: 64-bit Data Rate: 3200 MT/s

VirtualMemory physical capacity: 8588881920 num_ppages: 2096895
VirtualMemory page size: 4096 log2_page_size: 12

CPU 0 runs traces/sssp-3.trace.gz
CPU 0 Bimodal branch predictor
Basic BTB sets: 1024 ways: 8 indirect buffer size: 4096 RAS size: 64
Stream Prefetcher Initialized
cpu0_L2C IP-based stride prefetcher
WARNING: The extended signature CACHE::prefetch_line(ip, base_addr, pf_addr, fill_this_level, prefetch_metadata) is deprecated.
WARNING: Use CACHE::prefetch_line(pf_addr, fill_this_level, prefetch_metadata) instead.
Heartbeat CPU 0 instructions: 10000002 cycles: 2980400 heartbeat IPC: 3.35525 cumulative IPC: 3.35525 (Simulation time: 0 hr 0 min 34 sec) 
Heartbeat CPU 0 instructions: 20000001 cycles: 6362337 heartbeat IPC: 2.95689 cumulative IPC: 3.1435 (Simulation time: 0 hr 1 min 13 sec) 

Warmup complete CPU 0 instructions: 25000004 cycles: 8126922 (Simulation time: 0 hr 1 min 33 sec) 

Heartbeat CPU 0 instructions: 30000002 cycles: 23367013 heartbeat IPC: 0.588074 cumulative IPC: 0.328082 (Simulation time: 0 hr 2 min 1 sec) 
Heartbeat CPU 0 instructions: 40000001 cycles: 53692075 heartbeat IPC: 0.32976 cumulative IPC: 0.329199 (Simulation time: 0 hr 3 min 5 sec) 
Heartbeat CPU 0 instructions: 50000002 cycles: 82340635 heartbeat IPC: 0.349058 cumulative IPC: 0.336865 (Simulation time: 0 hr 4 min 12 sec) 
Finished CPU 0 instructions: 25000000 cycles: 74213731 cumulative IPC: 0.336865 (Simulation time: 0 hr 4 min 12 sec) 

ChampSim completed all CPUs

Region of Interest Statistics

CPU 0 cumulative IPC: 0.336865 instructions: 25000000 cycles: 74213731
cpu0_DTLB TOTAL     ACCESS:    6304588  HIT:    5867026  MISS:     437562
cpu0_DTLB LOAD      ACCESS:    5879496  HIT:    5599117  MISS:     280379
cpu0_DTLB RFO       ACCESS:     425092  HIT:     267909  MISS:     157183
cpu0_DTLB PREFETCH  ACCESS:          0  HIT:          0  MISS:          0
cpu0_DTLB WRITEBACK ACCESS:          0  HIT:          0  MISS:          0
cpu0_DTLB TRANSLATION ACCESS:          0  HIT:          0  MISS:          0
cpu0_DTLB PREFETCH  REQUESTED:          0  ISSUED:          0  USEFUL:          0  USELESS:          0
cpu0_DTLB AVERAGE MISS LATENCY: 11.2733 cycles
cpu0_ITLB TOTAL     ACCESS:    2383701  HIT:    2383701  MISS:          0
cpu0_ITLB LOAD      ACCESS:    2383701  HIT:    2383701  MISS:          0
cpu0_ITLB RFO       ACCESS:          0  HIT:          0  MISS:          0
cpu0_ITLB PREFETCH  ACCESS:          0  HIT:          0  MISS:          0
cpu0_ITLB WRITEBACK ACCESS:          0  HIT:          0  MISS:          0
cpu0_ITLB TRANSLATION ACCESS:          0  HIT:          0  MISS:          0
cpu0_ITLB PREFETCH  REQUESTED:          0  ISSUED:          0  USEFUL:          0  USELESS:          0
cpu0_ITLB AVERAGE MISS LATENCY: -nan cycles
cpu0_L1I TOTAL     ACCESS:      10707  HIT:      10707  MISS:          0
cpu0_L1I LOAD      ACCESS:      10707  HIT:      10707  MISS:          0
cpu0_L1I RFO       ACCESS:          0  HIT:          0  MISS:          0
cpu0_L1I PREFETCH  ACCESS:          0  HIT:          0  MISS:          0
cpu0_L1I WRITEBACK ACCESS:          0  HIT:          0  MISS:          0
cpu0_L1I TRANSLATION ACCESS:          0  HIT:          0  MISS:          0
cpu0_L1I PREFETCH  REQUESTED:          0  ISSUED:          0  USEFUL:          0  USELESS:          0
cpu0_L1I AVERAGE MISS LATENCY: -nan cycles
cpu0_STLB TOTAL     ACCESS:     437562  HIT:     432132  MISS:       5430
cpu0_STLB LOAD      ACCESS:     280379  HIT:     275691  MISS:       4688
cpu0_STLB RFO       ACCESS:     157183  HIT:     156441  MISS:        742
cpu0_STLB PREFETCH  ACCESS:          0  HIT:          0  MISS:          0
cpu0_STLB WRITEBACK ACCESS:          0  HIT:          0  MISS:          0
cpu0_STLB TRANSLATION ACCESS:          0  HIT:          0  MISS:          0
cpu0_STLB PREFETCH  REQUESTED:          0  ISSUED:          0  USEFUL:          0  USELESS:          0
cpu0_STLB AVERAGE MISS LATENCY: 174.297 cycles
cpu0_L1D TOTAL     ACCESS:    6598360  HIT:    5353911  MISS:    1244449
cpu0_L1D LOAD      ACCESS:    5889445  HIT:    4763406  MISS:    1126039
cpu0_L1D RFO       ACCESS:     629657  HIT:     514903  MISS:     114754
cpu0_L1D PREFETCH  ACCESS:      73854  HIT:      72153  MISS:       1701
cpu0_L1D WRITEBACK ACCESS:          0  HIT:          0  MISS:          0
cpu0_L1D TRANSLATION ACCESS:       5404  HIT:       3449  MISS:       1955
cpu0_L1D PREFETCH  REQUESTED:     180747  ISSUED:      73866  USEFUL:       1311  USELESS:        392
cpu0_L1D AVERAGE MISS LATENCY: 108.906 cycles
cpu0_L2C TOTAL     ACCESS:    3690793  HIT:    2461880  MISS:    1228913
cpu0_L2C LOAD      ACCESS:    1126029  HIT:     377368  MISS:     748661
cpu0_L2C RFO       ACCESS:     114747  HIT:      77137  MISS:      37610
cpu0_L2C PREFETCH  ACCESS:    2099480  HIT:    1659307  MISS:     440173
cpu0_L2C WRITEBACK ACCESS:     348582  HIT:     346619  MISS:       1963
cpu0_L2C TRANSLATION ACCESS:       1955  HIT:       1449  MISS:        506
cpu0_L2C PREFETCH  REQUESTED:    2397099  ISSUED:    2318837  USEFUL:     272809  USELESS:     189990
cpu0_L2C AVERAGE MISS LATENCY: 191.091 cycles
LLC TOTAL     ACCESS:    1485812  HIT:     664704  MISS:     821108
LLC LOAD      ACCESS:     725827  HIT:     346108  MISS:     379719
LLC RFO       ACCESS:      37610  HIT:      11521  MISS:      26089
LLC PREFETCH  ACCESS:     483578  HIT:      70830  MISS:     412748
LLC WRITEBACK ACCESS:     238291  HIT:     235982  MISS:       2309
LLC TRANSLATION ACCESS:        506  HIT:        263  MISS:        243
LLC PREFETCH  REQUESTED:          0  ISSUED:          0  USEFUL:          0  USELESS:          0
LLC AVERAGE MISS LATENCY: 282.69 cycles

DRAM Statistics
 CHANNEL 0
 RQ ROW_BUFFER_HIT:     258056  ROW_BUFFER_MISS:     560360
 DBUS AVG_CONGESTED_CYCLE:    3.93489
 WQ ROW_BUFFER_HIT:      34089  ROW_BUFFER_MISS:     177009  FULL:          0


CPU 0 Branch Prediction Accuracy: 91.1986% MPKI: 12.9566 Average ROB Occupancy at Mispredict: 52.317
Branch type MPKI
BRANCH_DIRECT_JUMP: 0
BRANCH_INDIRECT: 0
BRANCH_CONDITIONAL: 12.9566
BRANCH_DIRECT_CALL: 0
BRANCH_INDIRECT_CALL: 0
BRANCH_RETURN: 0

