
*** ChampSim Multicore Out-of-Order Simulator ***

Warmup Instructions: 25000000
Simulation Instructions: 25000000
Number of CPUs: 1
Off-chip DRAM Size: 4 GiB Channels: 1 Width: 64-bit Data Rate: 3200 MT/s

VirtualMemory physical capacity: 8588881920 num_ppages: 2096895
VirtualMemory page size: 4096 log2_page_size: 12

CPU 0 runs traces/bc-0.trace.gz
CPU 0 Bimodal branch predictor
Basic BTB sets: 1024 ways: 8 indirect buffer size: 4096 RAS size: 64
Stream Prefetcher Initialized
Stream Prefetcher Initialized
WARNING: The extended signature CACHE::prefetch_line(ip, base_addr, pf_addr, fill_this_level, prefetch_metadata) is deprecated.
WARNING: Use CACHE::prefetch_line(pf_addr, fill_this_level, prefetch_metadata) instead.
Heartbeat CPU 0 instructions: 10000002 cycles: 3203422 heartbeat IPC: 3.12166 cumulative IPC: 3.12166 (Simulation time: 0 hr 0 min 41 sec) 
Heartbeat CPU 0 instructions: 20000000 cycles: 5712244 heartbeat IPC: 3.98593 cumulative IPC: 3.50125 (Simulation time: 0 hr 1 min 12 sec) 

Warmup complete CPU 0 instructions: 25000001 cycles: 6963674 (Simulation time: 0 hr 1 min 26 sec) 

Heartbeat CPU 0 instructions: 30000001 cycles: 42809301 heartbeat IPC: 0.269563 cumulative IPC: 0.139487 (Simulation time: 0 hr 2 min 8 sec) 
Heartbeat CPU 0 instructions: 40000002 cycles: 116221639 heartbeat IPC: 0.136217 cumulative IPC: 0.13729 (Simulation time: 0 hr 3 min 35 sec) 
Heartbeat CPU 0 instructions: 50000002 cycles: 189396931 heartbeat IPC: 0.136658 cumulative IPC: 0.137036 (Simulation time: 0 hr 5 min 5 sec) 
Finished CPU 0 instructions: 25000001 cycles: 182433257 cumulative IPC: 0.137036 (Simulation time: 0 hr 5 min 5 sec) 

ChampSim completed all CPUs

Region of Interest Statistics

CPU 0 cumulative IPC: 0.137036 instructions: 25000001 cycles: 182433257
cpu0_DTLB TOTAL     ACCESS:    5781904  HIT:    5048123  MISS:     733781
cpu0_DTLB LOAD      ACCESS:    4554440  HIT:    4076438  MISS:     478002
cpu0_DTLB RFO       ACCESS:    1227464  HIT:     971685  MISS:     255779
cpu0_DTLB PREFETCH  ACCESS:          0  HIT:          0  MISS:          0
cpu0_DTLB WRITEBACK ACCESS:          0  HIT:          0  MISS:          0
cpu0_DTLB TRANSLATION ACCESS:          0  HIT:          0  MISS:          0
cpu0_DTLB PREFETCH  REQUESTED:          0  ISSUED:          0  USEFUL:          0  USELESS:          0
cpu0_DTLB AVERAGE MISS LATENCY: 13.8979 cycles
cpu0_ITLB TOTAL     ACCESS:    3107161  HIT:    3107161  MISS:          0
cpu0_ITLB LOAD      ACCESS:    3107161  HIT:    3107161  MISS:          0
cpu0_ITLB RFO       ACCESS:          0  HIT:          0  MISS:          0
cpu0_ITLB PREFETCH  ACCESS:          0  HIT:          0  MISS:          0
cpu0_ITLB WRITEBACK ACCESS:          0  HIT:          0  MISS:          0
cpu0_ITLB TRANSLATION ACCESS:          0  HIT:          0  MISS:          0
cpu0_ITLB PREFETCH  REQUESTED:          0  ISSUED:          0  USEFUL:          0  USELESS:          0
cpu0_ITLB AVERAGE MISS LATENCY: -nan cycles
cpu0_L1I TOTAL     ACCESS:         86  HIT:         86  MISS:          0
cpu0_L1I LOAD      ACCESS:         86  HIT:         86  MISS:          0
cpu0_L1I RFO       ACCESS:          0  HIT:          0  MISS:          0
cpu0_L1I PREFETCH  ACCESS:          0  HIT:          0  MISS:          0
cpu0_L1I WRITEBACK ACCESS:          0  HIT:          0  MISS:          0
cpu0_L1I TRANSLATION ACCESS:          0  HIT:          0  MISS:          0
cpu0_L1I PREFETCH  REQUESTED:          0  ISSUED:          0  USEFUL:          0  USELESS:          0
cpu0_L1I AVERAGE MISS LATENCY: -nan cycles
cpu0_STLB TOTAL     ACCESS:     733781  HIT:     397123  MISS:     336658
cpu0_STLB LOAD      ACCESS:     478002  HIT:     310208  MISS:     167794
cpu0_STLB RFO       ACCESS:     255779  HIT:      86915  MISS:     168864
cpu0_STLB PREFETCH  ACCESS:          0  HIT:          0  MISS:          0
cpu0_STLB WRITEBACK ACCESS:          0  HIT:          0  MISS:          0
cpu0_STLB TRANSLATION ACCESS:          0  HIT:          0  MISS:          0
cpu0_STLB PREFETCH  REQUESTED:          0  ISSUED:          0  USEFUL:          0  USELESS:          0
cpu0_STLB AVERAGE MISS LATENCY: 10.4903 cycles
cpu0_L1D TOTAL     ACCESS:    6889667  HIT:    4801854  MISS:    2087813
cpu0_L1D LOAD      ACCESS:    5221739  HIT:    3147447  MISS:    2074292
cpu0_L1D RFO       ACCESS:    1298920  HIT:    1287888  MISS:      11032
cpu0_L1D PREFETCH  ACCESS:      41930  HIT:      40835  MISS:       1095
cpu0_L1D WRITEBACK ACCESS:          0  HIT:          0  MISS:          0
cpu0_L1D TRANSLATION ACCESS:     327078  HIT:     325684  MISS:       1394
cpu0_L1D PREFETCH  REQUESTED:     104646  ISSUED:      41930  USEFUL:        632  USELESS:        463
cpu0_L1D AVERAGE MISS LATENCY: 163.235 cycles
cpu0_L2C TOTAL     ACCESS:    2739002  HIT:     884546  MISS:    1854456
cpu0_L2C LOAD      ACCESS:    2074292  HIT:     230934  MISS:    1843358
cpu0_L2C RFO       ACCESS:      11032  HIT:        137  MISS:      10895
cpu0_L2C PREFETCH  ACCESS:       3461  HIT:       3327  MISS:        134
cpu0_L2C WRITEBACK ACCESS:     648823  HIT:     648801  MISS:         22
cpu0_L2C TRANSLATION ACCESS:       1394  HIT:       1347  MISS:         47
cpu0_L2C PREFETCH  REQUESTED:       7098  ISSUED:       2366  USEFUL:          0  USELESS:          0
cpu0_L2C AVERAGE MISS LATENCY: 171.174 cycles
LLC TOTAL     ACCESS:    2488083  HIT:    1273567  MISS:    1214516
LLC LOAD      ACCESS:    1843358  HIT:     639343  MISS:    1204015
LLC RFO       ACCESS:      10895  HIT:        543  MISS:      10352
LLC PREFETCH  ACCESS:        134  HIT:         96  MISS:         38
LLC WRITEBACK ACCESS:     633649  HIT:     633574  MISS:         75
LLC TRANSLATION ACCESS:         47  HIT:         11  MISS:         36
LLC PREFETCH  REQUESTED:          0  ISSUED:          0  USEFUL:          0  USELESS:          0
LLC AVERAGE MISS LATENCY: 229.301 cycles

DRAM Statistics
 CHANNEL 0
 RQ ROW_BUFFER_HIT:      53936  ROW_BUFFER_MISS:    1159809
 DBUS AVG_CONGESTED_CYCLE:    3.95811
 WQ ROW_BUFFER_HIT:       1033  ROW_BUFFER_MISS:     533954  FULL:          0


CPU 0 Branch Prediction Accuracy: 81.1279% MPKI: 35.6282 Average ROB Occupancy at Mispredict: 22.5022
Branch type MPKI
BRANCH_DIRECT_JUMP: 0
BRANCH_INDIRECT: 0
BRANCH_CONDITIONAL: 35.6282
BRANCH_DIRECT_CALL: 0
BRANCH_INDIRECT_CALL: 0
BRANCH_RETURN: 0

