
*** ChampSim Multicore Out-of-Order Simulator ***

Warmup Instructions: 25000000
Simulation Instructions: 25000000
Number of CPUs: 1
Off-chip DRAM Size: 4 GiB Channels: 1 Width: 64-bit Data Rate: 3200 MT/s

VirtualMemory physical capacity: 8588881920 num_ppages: 2096895
VirtualMemory page size: 4096 log2_page_size: 12

CPU 0 runs traces/bc-0.trace.gz
CPU 0 Bimodal branch predictor
Basic BTB sets: 1024 ways: 8 indirect buffer size: 4096 RAS size: 64
Stream Prefetcher Initialized
Stream Prefetcher Initialized
WARNING: The extended signature CACHE::prefetch_line(ip, base_addr, pf_addr, fill_this_level, prefetch_metadata) is deprecated.
WARNING: Use CACHE::prefetch_line(pf_addr, fill_this_level, prefetch_metadata) instead.
Heartbeat CPU 0 instructions: 10000002 cycles: 3203422 heartbeat IPC: 3.12166 cumulative IPC: 3.12166 (Simulation time: 0 hr 0 min 35 sec) 
Heartbeat CPU 0 instructions: 20000000 cycles: 5712244 heartbeat IPC: 3.98593 cumulative IPC: 3.50125 (Simulation time: 0 hr 1 min 0 sec) 

Warmup complete CPU 0 instructions: 25000001 cycles: 6963674 (Simulation time: 0 hr 1 min 13 sec) 

Heartbeat CPU 0 instructions: 30000001 cycles: 42821986 heartbeat IPC: 0.269471 cumulative IPC: 0.139438 (Simulation time: 0 hr 1 min 50 sec) 
Heartbeat CPU 0 instructions: 40000002 cycles: 116253609 heartbeat IPC: 0.136181 cumulative IPC: 0.13725 (Simulation time: 0 hr 3 min 7 sec) 
Heartbeat CPU 0 instructions: 50000002 cycles: 189441206 heartbeat IPC: 0.136635 cumulative IPC: 0.137003 (Simulation time: 0 hr 4 min 23 sec) 
Finished CPU 0 instructions: 25000001 cycles: 182477532 cumulative IPC: 0.137003 (Simulation time: 0 hr 4 min 23 sec) 

ChampSim completed all CPUs

Region of Interest Statistics

CPU 0 cumulative IPC: 0.137003 instructions: 25000001 cycles: 182477532
cpu0_DTLB TOTAL     ACCESS:    5781864  HIT:    5048083  MISS:     733781
cpu0_DTLB LOAD      ACCESS:    4554378  HIT:    4076374  MISS:     478004
cpu0_DTLB RFO       ACCESS:    1227486  HIT:     971709  MISS:     255777
cpu0_DTLB PREFETCH  ACCESS:          0  HIT:          0  MISS:          0
cpu0_DTLB WRITEBACK ACCESS:          0  HIT:          0  MISS:          0
cpu0_DTLB TRANSLATION ACCESS:          0  HIT:          0  MISS:          0
cpu0_DTLB PREFETCH  REQUESTED:          0  ISSUED:          0  USEFUL:          0  USELESS:          0
cpu0_DTLB AVERAGE MISS LATENCY: 13.8675 cycles
cpu0_ITLB TOTAL     ACCESS:    3107161  HIT:    3107161  MISS:          0
cpu0_ITLB LOAD      ACCESS:    3107161  HIT:    3107161  MISS:          0
cpu0_ITLB RFO       ACCESS:          0  HIT:          0  MISS:          0
cpu0_ITLB PREFETCH  ACCESS:          0  HIT:          0  MISS:          0
cpu0_ITLB WRITEBACK ACCESS:          0  HIT:          0  MISS:          0
cpu0_ITLB TRANSLATION ACCESS:          0  HIT:          0  MISS:          0
cpu0_ITLB PREFETCH  REQUESTED:          0  ISSUED:          0  USEFUL:          0  USELESS:          0
cpu0_ITLB AVERAGE MISS LATENCY: -nan cycles
cpu0_L1I TOTAL     ACCESS:         86  HIT:         86  MISS:          0
cpu0_L1I LOAD      ACCESS:         86  HIT:         86  MISS:          0
cpu0_L1I RFO       ACCESS:          0  HIT:          0  MISS:          0
cpu0_L1I PREFETCH  ACCESS:          0  HIT:          0  MISS:          0
cpu0_L1I WRITEBACK ACCESS:          0  HIT:          0  MISS:          0
cpu0_L1I TRANSLATION ACCESS:          0  HIT:          0  MISS:          0
cpu0_L1I PREFETCH  REQUESTED:          0  ISSUED:          0  USEFUL:          0  USELESS:          0
cpu0_L1I AVERAGE MISS LATENCY: -nan cycles
cpu0_STLB TOTAL     ACCESS:     733781  HIT:     397123  MISS:     336658
cpu0_STLB LOAD      ACCESS:     478004  HIT:     310208  MISS:     167796
cpu0_STLB RFO       ACCESS:     255777  HIT:      86915  MISS:     168862
cpu0_STLB PREFETCH  ACCESS:          0  HIT:          0  MISS:          0
cpu0_STLB WRITEBACK ACCESS:          0  HIT:          0  MISS:          0
cpu0_STLB TRANSLATION ACCESS:          0  HIT:          0  MISS:          0
cpu0_STLB PREFETCH  REQUESTED:          0  ISSUED:          0  USEFUL:          0  USELESS:          0
cpu0_STLB AVERAGE MISS LATENCY: 10.4241 cycles
cpu0_L1D TOTAL     ACCESS:    6889996  HIT:    4801844  MISS:    2088152
cpu0_L1D LOAD      ACCESS:    5221732  HIT:    3147439  MISS:    2074293
cpu0_L1D RFO       ACCESS:    1298911  HIT:    1287879  MISS:      11032
cpu0_L1D PREFETCH  ACCESS:      42276  HIT:      40843  MISS:       1433
cpu0_L1D WRITEBACK ACCESS:          0  HIT:          0  MISS:          0
cpu0_L1D TRANSLATION ACCESS:     327077  HIT:     325683  MISS:       1394
cpu0_L1D PREFETCH  REQUESTED:     104658  ISSUED:      42276  USEFUL:        643  USELESS:        790
cpu0_L1D AVERAGE MISS LATENCY: 163.261 cycles
cpu0_L2C TOTAL     ACCESS:    2739340  HIT:     884789  MISS:    1854551
cpu0_L2C LOAD      ACCESS:    2074293  HIT:     230918  MISS:    1843375
cpu0_L2C RFO       ACCESS:      11032  HIT:        137  MISS:      10895
cpu0_L2C PREFETCH  ACCESS:       3798  HIT:       3586  MISS:        212
cpu0_L2C WRITEBACK ACCESS:     648823  HIT:     648801  MISS:         22
cpu0_L2C TRANSLATION ACCESS:       1394  HIT:       1347  MISS:         47
cpu0_L2C PREFETCH  REQUESTED:       7095  ISSUED:       2365  USEFUL:          0  USELESS:          0
cpu0_L2C AVERAGE MISS LATENCY: 171.222 cycles
LLC TOTAL     ACCESS:    2488178  HIT:    1273631  MISS:    1214547
LLC LOAD      ACCESS:    1843375  HIT:     639338  MISS:    1204037
LLC RFO       ACCESS:      10895  HIT:        543  MISS:      10352
LLC PREFETCH  ACCESS:        212  HIT:        165  MISS:         47
LLC WRITEBACK ACCESS:     633649  HIT:     633574  MISS:         75
LLC TRANSLATION ACCESS:         47  HIT:         11  MISS:         36
LLC PREFETCH  REQUESTED:          0  ISSUED:          0  USEFUL:          0  USELESS:          0
LLC AVERAGE MISS LATENCY: 229.382 cycles

DRAM Statistics
 CHANNEL 0
 RQ ROW_BUFFER_HIT:      53643  ROW_BUFFER_MISS:    1160111
 DBUS AVG_CONGESTED_CYCLE:    3.95806
 WQ ROW_BUFFER_HIT:       1127  ROW_BUFFER_MISS:     533871  FULL:          0


CPU 0 Branch Prediction Accuracy: 81.1279% MPKI: 35.6282 Average ROB Occupancy at Mispredict: 22.505
Branch type MPKI
BRANCH_DIRECT_JUMP: 0
BRANCH_INDIRECT: 0
BRANCH_CONDITIONAL: 35.6282
BRANCH_DIRECT_CALL: 0
BRANCH_INDIRECT_CALL: 0
BRANCH_RETURN: 0

