
*** ChampSim Multicore Out-of-Order Simulator ***

Warmup Instructions: 25000000
Simulation Instructions: 25000000
Number of CPUs: 1
Off-chip DRAM Size: 4 GiB Channels: 1 Width: 64-bit Data Rate: 3200 MT/s

VirtualMemory physical capacity: 8588881920 num_ppages: 2096895
VirtualMemory page size: 4096 log2_page_size: 12

CPU 0 runs traces/602.gcc_s-1850B.champsimtrace.xz
CPU 0 Bimodal branch predictor
Basic BTB sets: 1024 ways: 8 indirect buffer size: 4096 RAS size: 64
Stream Prefetcher Initialized
cpu0_L2C IP-based stride prefetcher
WARNING: The extended signature CACHE::prefetch_line(ip, base_addr, pf_addr, fill_this_level, prefetch_metadata) is deprecated.
WARNING: Use CACHE::prefetch_line(pf_addr, fill_this_level, prefetch_metadata) instead.
Heartbeat CPU 0 instructions: 10000000 cycles: 2500075 heartbeat IPC: 3.99988 cumulative IPC: 3.99988 (Simulation time: 0 hr 0 min 21 sec) 
Heartbeat CPU 0 instructions: 20000000 cycles: 5000075 heartbeat IPC: 4 cumulative IPC: 3.99994 (Simulation time: 0 hr 0 min 42 sec) 

Warmup complete CPU 0 instructions: 25000004 cycles: 6250076 (Simulation time: 0 hr 0 min 52 sec) 

Heartbeat CPU 0 instructions: 30000000 cycles: 16745931 heartbeat IPC: 0.851364 cumulative IPC: 0.476378 (Simulation time: 0 hr 1 min 7 sec) 
Heartbeat CPU 0 instructions: 40000002 cycles: 37863397 heartbeat IPC: 0.473542 cumulative IPC: 0.474483 (Simulation time: 0 hr 1 min 41 sec) 
Heartbeat CPU 0 instructions: 50000003 cycles: 59027055 heartbeat IPC: 0.472508 cumulative IPC: 0.473691 (Simulation time: 0 hr 2 min 12 sec) 
Finished CPU 0 instructions: 25000004 cycles: 52776980 cumulative IPC: 0.473691 (Simulation time: 0 hr 2 min 12 sec) 

ChampSim completed all CPUs

Region of Interest Statistics

CPU 0 cumulative IPC: 0.473691 instructions: 25000004 cycles: 52776980
cpu0_DTLB TOTAL     ACCESS:    4748155  HIT:    4740029  MISS:       8126
cpu0_DTLB LOAD      ACCESS:    3938565  HIT:    3930442  MISS:       8123
cpu0_DTLB RFO       ACCESS:     809590  HIT:     809587  MISS:          3
cpu0_DTLB PREFETCH  ACCESS:          0  HIT:          0  MISS:          0
cpu0_DTLB WRITEBACK ACCESS:          0  HIT:          0  MISS:          0
cpu0_DTLB TRANSLATION ACCESS:          0  HIT:          0  MISS:          0
cpu0_DTLB PREFETCH  REQUESTED:          0  ISSUED:          0  USEFUL:          0  USELESS:          0
cpu0_DTLB AVERAGE MISS LATENCY: 208.02 cycles
cpu0_ITLB TOTAL     ACCESS:    2857034  HIT:    2857034  MISS:          0
cpu0_ITLB LOAD      ACCESS:    2857034  HIT:    2857034  MISS:          0
cpu0_ITLB RFO       ACCESS:          0  HIT:          0  MISS:          0
cpu0_ITLB PREFETCH  ACCESS:          0  HIT:          0  MISS:          0
cpu0_ITLB WRITEBACK ACCESS:          0  HIT:          0  MISS:          0
cpu0_ITLB TRANSLATION ACCESS:          0  HIT:          0  MISS:          0
cpu0_ITLB PREFETCH  REQUESTED:          0  ISSUED:          0  USEFUL:          0  USELESS:          0
cpu0_ITLB AVERAGE MISS LATENCY: -nan cycles
cpu0_STLB TOTAL     ACCESS:       8126  HIT:        392  MISS:       7734
cpu0_STLB LOAD      ACCESS:       8123  HIT:        392  MISS:       7731
cpu0_STLB RFO       ACCESS:          3  HIT:          0  MISS:          3
cpu0_STLB PREFETCH  ACCESS:          0  HIT:          0  MISS:          0
cpu0_STLB WRITEBACK ACCESS:          0  HIT:          0  MISS:          0
cpu0_STLB TRANSLATION ACCESS:          0  HIT:          0  MISS:          0
cpu0_STLB PREFETCH  REQUESTED:          0  ISSUED:          0  USEFUL:          0  USELESS:          0
cpu0_STLB AVERAGE MISS LATENCY: 209.107 cycles
cpu0_L1D TOTAL     ACCESS:    5559056  HIT:    4956902  MISS:     602154
cpu0_L1D LOAD      ACCESS:    3382568  HIT:    2781461  MISS:     601107
cpu0_L1D RFO       ACCESS:    2157622  HIT:    2157450  MISS:        172
cpu0_L1D PREFETCH  ACCESS:      11132  HIT:      11002  MISS:        130
cpu0_L1D WRITEBACK ACCESS:          0  HIT:          0  MISS:          0
cpu0_L1D TRANSLATION ACCESS:       7734  HIT:       6989  MISS:        745
cpu0_L1D PREFETCH  REQUESTED:      30819  ISSUED:      11143  USEFUL:         49  USELESS:         81
cpu0_L1D AVERAGE MISS LATENCY: 43.9936 cycles
cpu0_L2C TOTAL     ACCESS:    1033696  HIT:     587603  MISS:     446093
cpu0_L2C LOAD      ACCESS:     601107  HIT:     400214  MISS:     200893
cpu0_L2C RFO       ACCESS:        172  HIT:         32  MISS:        140
cpu0_L2C PREFETCH  ACCESS:     430109  HIT:     185181  MISS:     244928
cpu0_L2C WRITEBACK ACCESS:       1563  HIT:       1563  MISS:          0
cpu0_L2C TRANSLATION ACCESS:        745  HIT:        613  MISS:        132
cpu0_L2C PREFETCH  REQUESTED:     659519  ISSUED:     658340  USEFUL:     287956  USELESS:        656
cpu0_L2C AVERAGE MISS LATENCY: 94.838 cycles
LLC TOTAL     ACCESS:     446712  HIT:       1279  MISS:     445433
LLC LOAD      ACCESS:     157132  HIT:        428  MISS:     156704
LLC RFO       ACCESS:        134  HIT:          0  MISS:        134
LLC PREFETCH  ACCESS:     288695  HIT:        169  MISS:     288526
LLC WRITEBACK ACCESS:        619  HIT:        619  MISS:          0
LLC TRANSLATION ACCESS:        132  HIT:         63  MISS:         69
LLC PREFETCH  REQUESTED:          0  ISSUED:          0  USEFUL:          0  USELESS:          0
LLC AVERAGE MISS LATENCY: 83.0875 cycles

DRAM Statistics
 CHANNEL 0
 RQ ROW_BUFFER_HIT:     363531  ROW_BUFFER_MISS:      81902
 DBUS AVG_CONGESTED_CYCLE:      3.962
 WQ ROW_BUFFER_HIT:        271  ROW_BUFFER_MISS:        352  FULL:          0


CPU 0 Branch Prediction Accuracy: 92.3646% MPKI: 19.576 Average ROB Occupancy at Mispredict: 33.4626
Branch type MPKI
BRANCH_DIRECT_JUMP: 0
BRANCH_INDIRECT: 0
BRANCH_CONDITIONAL: 19.576
BRANCH_DIRECT_CALL: 0
BRANCH_INDIRECT_CALL: 0
BRANCH_RETURN: 0

