
*** ChampSim Multicore Out-of-Order Simulator ***

Warmup Instructions: 25000000
Simulation Instructions: 25000000
Number of CPUs: 1
Off-chip DRAM Size: 4 GiB Channels: 1 Width: 64-bit Data Rate: 3200 MT/s

VirtualMemory physical capacity: 8588881920 num_ppages: 2096895
VirtualMemory page size: 4096 log2_page_size: 12

CPU 0 runs traces/bc-0.trace.gz
CPU 0 Bimodal branch predictor
Basic BTB sets: 1024 ways: 8 indirect buffer size: 4096 RAS size: 64
Stream Prefetcher Initialized
cpu0_L2C IP-based stride prefetcher
WARNING: The extended signature CACHE::prefetch_line(ip, base_addr, pf_addr, fill_this_level, prefetch_metadata) is deprecated.
WARNING: Use CACHE::prefetch_line(pf_addr, fill_this_level, prefetch_metadata) instead.
Heartbeat CPU 0 instructions: 10000002 cycles: 3203423 heartbeat IPC: 3.12166 cumulative IPC: 3.12166 (Simulation time: 0 hr 0 min 34 sec) 
Heartbeat CPU 0 instructions: 20000003 cycles: 5712247 heartbeat IPC: 3.98593 cumulative IPC: 3.50125 (Simulation time: 0 hr 0 min 59 sec) 

Warmup complete CPU 0 instructions: 25000001 cycles: 6963677 (Simulation time: 0 hr 1 min 10 sec) 

Heartbeat CPU 0 instructions: 30000001 cycles: 40245913 heartbeat IPC: 0.289572 cumulative IPC: 0.15023 (Simulation time: 0 hr 1 min 44 sec) 
Heartbeat CPU 0 instructions: 40000002 cycles: 108520949 heartbeat IPC: 0.146466 cumulative IPC: 0.1477 (Simulation time: 0 hr 2 min 55 sec) 
Heartbeat CPU 0 instructions: 50000002 cycles: 176637042 heartbeat IPC: 0.146808 cumulative IPC: 0.147342 (Simulation time: 0 hr 4 min 4 sec) 
Finished CPU 0 instructions: 25000001 cycles: 169673365 cumulative IPC: 0.147342 (Simulation time: 0 hr 4 min 4 sec) 

ChampSim completed all CPUs

Region of Interest Statistics

CPU 0 cumulative IPC: 0.147342 instructions: 25000001 cycles: 169673365
cpu0_DTLB TOTAL     ACCESS:    5775977  HIT:    5042195  MISS:     733782
cpu0_DTLB LOAD      ACCESS:    4548584  HIT:    4071400  MISS:     477184
cpu0_DTLB RFO       ACCESS:    1227393  HIT:     970795  MISS:     256598
cpu0_DTLB PREFETCH  ACCESS:          0  HIT:          0  MISS:          0
cpu0_DTLB WRITEBACK ACCESS:          0  HIT:          0  MISS:          0
cpu0_DTLB TRANSLATION ACCESS:          0  HIT:          0  MISS:          0
cpu0_DTLB PREFETCH  REQUESTED:          0  ISSUED:          0  USEFUL:          0  USELESS:          0
cpu0_DTLB AVERAGE MISS LATENCY: 13.8844 cycles
cpu0_ITLB TOTAL     ACCESS:    3107161  HIT:    3107161  MISS:          0
cpu0_ITLB LOAD      ACCESS:    3107161  HIT:    3107161  MISS:          0
cpu0_ITLB RFO       ACCESS:          0  HIT:          0  MISS:          0
cpu0_ITLB PREFETCH  ACCESS:          0  HIT:          0  MISS:          0
cpu0_ITLB WRITEBACK ACCESS:          0  HIT:          0  MISS:          0
cpu0_ITLB TRANSLATION ACCESS:          0  HIT:          0  MISS:          0
cpu0_ITLB PREFETCH  REQUESTED:          0  ISSUED:          0  USEFUL:          0  USELESS:          0
cpu0_ITLB AVERAGE MISS LATENCY: -nan cycles
cpu0_L1I TOTAL     ACCESS:         86  HIT:         86  MISS:          0
cpu0_L1I LOAD      ACCESS:         86  HIT:         86  MISS:          0
cpu0_L1I RFO       ACCESS:          0  HIT:          0  MISS:          0
cpu0_L1I PREFETCH  ACCESS:          0  HIT:          0  MISS:          0
cpu0_L1I WRITEBACK ACCESS:          0  HIT:          0  MISS:          0
cpu0_L1I TRANSLATION ACCESS:          0  HIT:          0  MISS:          0
cpu0_L1I PREFETCH  REQUESTED:          0  ISSUED:          0  USEFUL:          0  USELESS:          0
cpu0_L1I AVERAGE MISS LATENCY: -nan cycles
cpu0_STLB TOTAL     ACCESS:     733782  HIT:     397124  MISS:     336658
cpu0_STLB LOAD      ACCESS:     477184  HIT:     309935  MISS:     167249
cpu0_STLB RFO       ACCESS:     256598  HIT:      87189  MISS:     169409
cpu0_STLB PREFETCH  ACCESS:          0  HIT:          0  MISS:          0
cpu0_STLB WRITEBACK ACCESS:          0  HIT:          0  MISS:          0
cpu0_STLB TRANSLATION ACCESS:          0  HIT:          0  MISS:          0
cpu0_STLB PREFETCH  REQUESTED:          0  ISSUED:          0  USEFUL:          0  USELESS:          0
cpu0_STLB AVERAGE MISS LATENCY: 10.467 cycles
cpu0_L1D TOTAL     ACCESS:    6897178  HIT:    4809417  MISS:    2087761
cpu0_L1D LOAD      ACCESS:    5228622  HIT:    3154327  MISS:    2074295
cpu0_L1D RFO       ACCESS:    1299146  HIT:    1288114  MISS:      11032
cpu0_L1D PREFETCH  ACCESS:      41856  HIT:      40816  MISS:       1040
cpu0_L1D WRITEBACK ACCESS:          0  HIT:          0  MISS:          0
cpu0_L1D TRANSLATION ACCESS:     327554  HIT:     326160  MISS:       1394
cpu0_L1D PREFETCH  REQUESTED:     103275  ISSUED:      41857  USEFUL:        582  USELESS:        458
cpu0_L1D AVERAGE MISS LATENCY: 161.705 cycles
cpu0_L2C TOTAL     ACCESS:    3163644  HIT:    1171135  MISS:    1992509
cpu0_L2C LOAD      ACCESS:    2074295  HIT:     331715  MISS:    1742580
cpu0_L2C RFO       ACCESS:      11032  HIT:        120  MISS:      10912
cpu0_L2C PREFETCH  ACCESS:     428101  HIT:     189153  MISS:     238948
cpu0_L2C WRITEBACK ACCESS:     648822  HIT:     648801  MISS:         21
cpu0_L2C TRANSLATION ACCESS:       1394  HIT:       1346  MISS:         48
cpu0_L2C PREFETCH  REQUESTED:     462983  ISSUED:     455261  USEFUL:     128595  USELESS:     119208
cpu0_L2C AVERAGE MISS LATENCY: 186.65 cycles
LLC TOTAL     ACCESS:    2627256  HIT:    1277929  MISS:    1349327
LLC LOAD      ACCESS:    1733842  HIT:     614318  MISS:    1119524
LLC RFO       ACCESS:      10912  HIT:        519  MISS:      10393
LLC PREFETCH  ACCESS:     248034  HIT:      28735  MISS:     219299
LLC WRITEBACK ACCESS:     634420  HIT:     634346  MISS:         74
LLC TRANSLATION ACCESS:         48  HIT:         11  MISS:         37
LLC PREFETCH  REQUESTED:          0  ISSUED:          0  USEFUL:          0  USELESS:          0
LLC AVERAGE MISS LATENCY: 247.036 cycles

DRAM Statistics
 CHANNEL 0
 RQ ROW_BUFFER_HIT:      93541  ROW_BUFFER_MISS:    1255019
 DBUS AVG_CONGESTED_CYCLE:    3.95877
 WQ ROW_BUFFER_HIT:       1127  ROW_BUFFER_MISS:     543078  FULL:          0


CPU 0 Branch Prediction Accuracy: 81.1279% MPKI: 35.6282 Average ROB Occupancy at Mispredict: 24.2755
Branch type MPKI
BRANCH_DIRECT_JUMP: 0
BRANCH_INDIRECT: 0
BRANCH_CONDITIONAL: 35.6282
BRANCH_DIRECT_CALL: 0
BRANCH_INDIRECT_CALL: 0
BRANCH_RETURN: 0

