
*** ChampSim Multicore Out-of-Order Simulator ***

Warmup Instructions: 25000000
Simulation Instructions: 25000000
Number of CPUs: 1
Off-chip DRAM Size: 4 GiB Channels: 1 Width: 64-bit Data Rate: 3200 MT/s

VirtualMemory physical capacity: 8588881920 num_ppages: 2096895
VirtualMemory page size: 4096 log2_page_size: 12

CPU 0 runs traces/sssp-3.trace.gz
CPU 0 Bimodal branch predictor
Basic BTB sets: 1024 ways: 8 indirect buffer size: 4096 RAS size: 64
Stream Prefetcher Initialized
cpu0_L2C IP-based stride prefetcher
WARNING: The extended signature CACHE::prefetch_line(ip, base_addr, pf_addr, fill_this_level, prefetch_metadata) is deprecated.
WARNING: Use CACHE::prefetch_line(pf_addr, fill_this_level, prefetch_metadata) instead.
Heartbeat CPU 0 instructions: 10000002 cycles: 2980403 heartbeat IPC: 3.35525 cumulative IPC: 3.35525 (Simulation time: 0 hr 0 min 32 sec) 
Heartbeat CPU 0 instructions: 20000001 cycles: 6362344 heartbeat IPC: 2.95688 cumulative IPC: 3.1435 (Simulation time: 0 hr 1 min 6 sec) 

Warmup complete CPU 0 instructions: 25000004 cycles: 8126924 (Simulation time: 0 hr 1 min 23 sec) 

Heartbeat CPU 0 instructions: 30000002 cycles: 23166534 heartbeat IPC: 0.59509 cumulative IPC: 0.332455 (Simulation time: 0 hr 1 min 46 sec) 
Heartbeat CPU 0 instructions: 40000001 cycles: 54110773 heartbeat IPC: 0.323162 cumulative IPC: 0.326201 (Simulation time: 0 hr 2 min 33 sec) 
Heartbeat CPU 0 instructions: 50000002 cycles: 83986642 heartbeat IPC: 0.334718 cumulative IPC: 0.329556 (Simulation time: 0 hr 3 min 21 sec) 
Finished CPU 0 instructions: 25000000 cycles: 75859736 cumulative IPC: 0.329556 (Simulation time: 0 hr 3 min 21 sec) 

ChampSim completed all CPUs

Region of Interest Statistics

CPU 0 cumulative IPC: 0.329556 instructions: 25000000 cycles: 75859736
cpu0_DTLB TOTAL     ACCESS:    6304080  HIT:    5866514  MISS:     437566
cpu0_DTLB LOAD      ACCESS:    5879520  HIT:    5599149  MISS:     280371
cpu0_DTLB RFO       ACCESS:     424560  HIT:     267365  MISS:     157195
cpu0_DTLB PREFETCH  ACCESS:          0  HIT:          0  MISS:          0
cpu0_DTLB WRITEBACK ACCESS:          0  HIT:          0  MISS:          0
cpu0_DTLB TRANSLATION ACCESS:          0  HIT:          0  MISS:          0
cpu0_DTLB PREFETCH  REQUESTED:          0  ISSUED:          0  USEFUL:          0  USELESS:          0
cpu0_DTLB AVERAGE MISS LATENCY: 11.3575 cycles
cpu0_ITLB TOTAL     ACCESS:    2383706  HIT:    2383706  MISS:          0
cpu0_ITLB LOAD      ACCESS:    2383706  HIT:    2383706  MISS:          0
cpu0_ITLB RFO       ACCESS:          0  HIT:          0  MISS:          0
cpu0_ITLB PREFETCH  ACCESS:          0  HIT:          0  MISS:          0
cpu0_ITLB WRITEBACK ACCESS:          0  HIT:          0  MISS:          0
cpu0_ITLB TRANSLATION ACCESS:          0  HIT:          0  MISS:          0
cpu0_ITLB PREFETCH  REQUESTED:          0  ISSUED:          0  USEFUL:          0  USELESS:          0
cpu0_ITLB AVERAGE MISS LATENCY: -nan cycles
cpu0_L1I TOTAL     ACCESS:      10708  HIT:      10708  MISS:          0
cpu0_L1I LOAD      ACCESS:      10708  HIT:      10708  MISS:          0
cpu0_L1I RFO       ACCESS:          0  HIT:          0  MISS:          0
cpu0_L1I PREFETCH  ACCESS:          0  HIT:          0  MISS:          0
cpu0_L1I WRITEBACK ACCESS:          0  HIT:          0  MISS:          0
cpu0_L1I TRANSLATION ACCESS:          0  HIT:          0  MISS:          0
cpu0_L1I PREFETCH  REQUESTED:          0  ISSUED:          0  USEFUL:          0  USELESS:          0
cpu0_L1I AVERAGE MISS LATENCY: -nan cycles
cpu0_STLB TOTAL     ACCESS:     437566  HIT:     432136  MISS:       5430
cpu0_STLB LOAD      ACCESS:     280371  HIT:     275683  MISS:       4688
cpu0_STLB RFO       ACCESS:     157195  HIT:     156453  MISS:        742
cpu0_STLB PREFETCH  ACCESS:          0  HIT:          0  MISS:          0
cpu0_STLB WRITEBACK ACCESS:          0  HIT:          0  MISS:          0
cpu0_STLB TRANSLATION ACCESS:          0  HIT:          0  MISS:          0
cpu0_STLB PREFETCH  REQUESTED:          0  ISSUED:          0  USEFUL:          0  USELESS:          0
cpu0_STLB AVERAGE MISS LATENCY: 181.082 cycles
cpu0_L1D TOTAL     ACCESS:    6597274  HIT:    5352843  MISS:    1244431
cpu0_L1D LOAD      ACCESS:    5888264  HIT:    4762232  MISS:    1126032
cpu0_L1D RFO       ACCESS:     629731  HIT:     514982  MISS:     114749
cpu0_L1D PREFETCH  ACCESS:      73875  HIT:      72179  MISS:       1696
cpu0_L1D WRITEBACK ACCESS:          0  HIT:          0  MISS:          0
cpu0_L1D TRANSLATION ACCESS:       5404  HIT:       3450  MISS:       1954
cpu0_L1D PREFETCH  REQUESTED:     180705  ISSUED:      73887  USEFUL:       1301  USELESS:        396
cpu0_L1D AVERAGE MISS LATENCY: 109.907 cycles
cpu0_L2C TOTAL     ACCESS:    2045075  HIT:     985969  MISS:    1059106
cpu0_L2C LOAD      ACCESS:    1126023  HIT:     331504  MISS:     794519
cpu0_L2C RFO       ACCESS:     114742  HIT:      78893  MISS:      35849
cpu0_L2C PREFETCH  ACCESS:     453784  HIT:     226988  MISS:     226796
cpu0_L2C WRITEBACK ACCESS:     348572  HIT:     347125  MISS:       1447
cpu0_L2C TRANSLATION ACCESS:       1954  HIT:       1459  MISS:        495
cpu0_L2C PREFETCH  REQUESTED:     559420  ISSUED:     534215  USEFUL:     166097  USELESS:      77782
cpu0_L2C AVERAGE MISS LATENCY: 154.736 cycles
LLC TOTAL     ACCESS:    1294317  HIT:     644817  MISS:     649500
LLC LOAD      ACCESS:     777161  HIT:     374867  MISS:     402294
LLC RFO       ACCESS:      35849  HIT:      10154  MISS:      25695
LLC PREFETCH  ACCESS:     245361  HIT:      25963  MISS:     219398
LLC WRITEBACK ACCESS:     235451  HIT:     233568  MISS:       1883
LLC TRANSLATION ACCESS:        495  HIT:        265  MISS:        230
LLC PREFETCH  REQUESTED:          0  ISSUED:          0  USEFUL:          0  USELESS:          0
LLC AVERAGE MISS LATENCY: 226.648 cycles

DRAM Statistics
 CHANNEL 0
 RQ ROW_BUFFER_HIT:      80624  ROW_BUFFER_MISS:     566621
 DBUS AVG_CONGESTED_CYCLE:     3.9438
 WQ ROW_BUFFER_HIT:      34754  ROW_BUFFER_MISS:     170759  FULL:          0


CPU 0 Branch Prediction Accuracy: 91.1986% MPKI: 12.9566 Average ROB Occupancy at Mispredict: 52.2951
Branch type MPKI
BRANCH_DIRECT_JUMP: 0
BRANCH_INDIRECT: 0
BRANCH_CONDITIONAL: 12.9566
BRANCH_DIRECT_CALL: 0
BRANCH_INDIRECT_CALL: 0
BRANCH_RETURN: 0

