
*** ChampSim Multicore Out-of-Order Simulator ***

Warmup Instructions: 25000000
Simulation Instructions: 25000000
Number of CPUs: 1
Off-chip DRAM Size: 4 GiB Channels: 1 Width: 64-bit Data Rate: 3200 MT/s

VirtualMemory physical capacity: 8588881920 num_ppages: 2096895
VirtualMemory page size: 4096 log2_page_size: 12

CPU 0 runs traces/602.gcc_s-1850B.champsimtrace.xz
CPU 0 Bimodal branch predictor
Basic BTB sets: 1024 ways: 8 indirect buffer size: 4096 RAS size: 64
Stream Prefetcher Initialized
Stream Prefetcher Initialized
WARNING: The extended signature CACHE::prefetch_line(ip, base_addr, pf_addr, fill_this_level, prefetch_metadata) is deprecated.
WARNING: Use CACHE::prefetch_line(pf_addr, fill_this_level, prefetch_metadata) instead.
Heartbeat CPU 0 instructions: 10000001 cycles: 2500075 heartbeat IPC: 3.99988 cumulative IPC: 3.99988 (Simulation time: 0 hr 0 min 21 sec) 
Heartbeat CPU 0 instructions: 20000001 cycles: 5000075 heartbeat IPC: 4 cumulative IPC: 3.99994 (Simulation time: 0 hr 0 min 41 sec) 

Warmup complete CPU 0 instructions: 25000001 cycles: 6250075 (Simulation time: 0 hr 0 min 52 sec) 

Heartbeat CPU 0 instructions: 30000000 cycles: 21797824 heartbeat IPC: 0.595318 cumulative IPC: 0.32159 (Simulation time: 0 hr 1 min 11 sec) 
Heartbeat CPU 0 instructions: 40000002 cycles: 52954072 heartbeat IPC: 0.320963 cumulative IPC: 0.321172 (Simulation time: 0 hr 1 min 49 sec) 
Heartbeat CPU 0 instructions: 50000003 cycles: 84146860 heartbeat IPC: 0.320587 cumulative IPC: 0.320938 (Simulation time: 0 hr 2 min 29 sec) 
Finished CPU 0 instructions: 25000002 cycles: 77896785 cumulative IPC: 0.320938 (Simulation time: 0 hr 2 min 29 sec) 

ChampSim completed all CPUs

Region of Interest Statistics

CPU 0 cumulative IPC: 0.320938 instructions: 25000002 cycles: 77896785
cpu0_DTLB TOTAL     ACCESS:    4748042  HIT:    4739916  MISS:       8126
cpu0_DTLB LOAD      ACCESS:    3938452  HIT:    3930329  MISS:       8123
cpu0_DTLB RFO       ACCESS:     809590  HIT:     809587  MISS:          3
cpu0_DTLB PREFETCH  ACCESS:          0  HIT:          0  MISS:          0
cpu0_DTLB WRITEBACK ACCESS:          0  HIT:          0  MISS:          0
cpu0_DTLB TRANSLATION ACCESS:          0  HIT:          0  MISS:          0
cpu0_DTLB PREFETCH  REQUESTED:          0  ISSUED:          0  USEFUL:          0  USELESS:          0
cpu0_DTLB AVERAGE MISS LATENCY: 208.023 cycles
cpu0_ITLB TOTAL     ACCESS:    2857034  HIT:    2857034  MISS:          0
cpu0_ITLB LOAD      ACCESS:    2857034  HIT:    2857034  MISS:          0
cpu0_ITLB RFO       ACCESS:          0  HIT:          0  MISS:          0
cpu0_ITLB PREFETCH  ACCESS:          0  HIT:          0  MISS:          0
cpu0_ITLB WRITEBACK ACCESS:          0  HIT:          0  MISS:          0
cpu0_ITLB TRANSLATION ACCESS:          0  HIT:          0  MISS:          0
cpu0_ITLB PREFETCH  REQUESTED:          0  ISSUED:          0  USEFUL:          0  USELESS:          0
cpu0_ITLB AVERAGE MISS LATENCY: -nan cycles
cpu0_STLB TOTAL     ACCESS:       8126  HIT:        392  MISS:       7734
cpu0_STLB LOAD      ACCESS:       8123  HIT:        392  MISS:       7731
cpu0_STLB RFO       ACCESS:          3  HIT:          0  MISS:          3
cpu0_STLB PREFETCH  ACCESS:          0  HIT:          0  MISS:          0
cpu0_STLB WRITEBACK ACCESS:          0  HIT:          0  MISS:          0
cpu0_STLB TRANSLATION ACCESS:          0  HIT:          0  MISS:          0
cpu0_STLB PREFETCH  REQUESTED:          0  ISSUED:          0  USEFUL:          0  USELESS:          0
cpu0_STLB AVERAGE MISS LATENCY: 209.11 cycles
cpu0_L1D TOTAL     ACCESS:    5558875  HIT:    4956668  MISS:     602207
cpu0_L1D LOAD      ACCESS:    3379058  HIT:    2777988  MISS:     601070
cpu0_L1D RFO       ACCESS:    2157622  HIT:    2157450  MISS:        172
cpu0_L1D PREFETCH  ACCESS:      14461  HIT:      14241  MISS:        220
cpu0_L1D WRITEBACK ACCESS:          0  HIT:          0  MISS:          0
cpu0_L1D TRANSLATION ACCESS:       7734  HIT:       6989  MISS:        745
cpu0_L1D PREFETCH  REQUESTED:      39042  ISSUED:      14471  USEFUL:        165  USELESS:         55
cpu0_L1D AVERAGE MISS LATENCY: 85.9903 cycles
cpu0_L2C TOTAL     ACCESS:     604285  HIT:     159068  MISS:     445217
cpu0_L2C LOAD      ACCESS:     601070  HIT:     156292  MISS:     444778
cpu0_L2C RFO       ACCESS:        172  HIT:          0  MISS:        172
cpu0_L2C PREFETCH  ACCESS:        714  HIT:        577  MISS:        137
cpu0_L2C WRITEBACK ACCESS:       1584  HIT:       1584  MISS:          0
cpu0_L2C TRANSLATION ACCESS:        745  HIT:        615  MISS:        130
cpu0_L2C PREFETCH  REQUESTED:        984  ISSUED:        496  USEFUL:         23  USELESS:         33
cpu0_L2C AVERAGE MISS LATENCY: 101.443 cycles
LLC TOTAL     ACCESS:     445838  HIT:       1282  MISS:     444556
LLC LOAD      ACCESS:     444778  HIT:        525  MISS:     444253
LLC RFO       ACCESS:        172  HIT:          0  MISS:        172
LLC PREFETCH  ACCESS:        137  HIT:         75  MISS:         62
LLC WRITEBACK ACCESS:        621  HIT:        621  MISS:          0
LLC TRANSLATION ACCESS:        130  HIT:         61  MISS:         69
LLC PREFETCH  REQUESTED:          0  ISSUED:          0  USEFUL:          0  USELESS:          0
LLC AVERAGE MISS LATENCY: 80.5623 cycles

DRAM Statistics
 CHANNEL 0
 RQ ROW_BUFFER_HIT:     363134  ROW_BUFFER_MISS:      81422
 DBUS AVG_CONGESTED_CYCLE:    3.70731
 WQ ROW_BUFFER_HIT:        372  ROW_BUFFER_MISS:        255  FULL:          0


CPU 0 Branch Prediction Accuracy: 92.3646% MPKI: 19.576 Average ROB Occupancy at Mispredict: 33.4927
Branch type MPKI
BRANCH_DIRECT_JUMP: 0
BRANCH_INDIRECT: 0
BRANCH_CONDITIONAL: 19.576
BRANCH_DIRECT_CALL: 0
BRANCH_INDIRECT_CALL: 0
BRANCH_RETURN: 0

